# CIF file generated by openbabel 2.4.90, see http://openbabel.sf.net
data_I
_chemical_name_common ''
_cell_length_a 20.451
_cell_length_b 24.817
_cell_length_c 15.846
_cell_angle_alpha 89.76
_cell_angle_beta 89.797
_cell_angle_gamma 96.677
_space_group_name_H-M_alt 'P 1'
_space_group_name_Hall 'P 1'
loop_
    _symmetry_equiv_pos_as_xyz
    x,y,z
loop_
    _atom_site_label
    _atom_site_type_symbol
    _atom_site_fract_x
    _atom_site_fract_y
    _atom_site_fract_z
    _atom_site_occupancy
    N0      N    0.43996   0.61203   0.34818   1.000
    N1      N    0.68981   0.86270   0.14979   1.000
    N2      N    0.93987   0.11202   0.34806   1.000
    N3      N    0.81008   0.63758   0.84961   1.000
    N4      N    0.93982   0.61206   0.34882   1.000
    N5      N    0.06007   0.38779   0.65126   1.000
    N6      N    0.06012   0.88757   0.65099   1.000
    N7      N    0.56018   0.38762   0.65120   1.000
    N8      N    0.19006   0.36278   0.14871   1.000
    N9      N    0.43987   0.11244   0.34833   1.000
    N10     N    0.19001   0.86220   0.14917   1.000
    N11     N    0.69000   0.36226   0.14924   1.000
    N12     N    0.56004   0.88754   0.65059   1.000
    N13     N    0.81048   0.13736   0.84921   1.000
    N14     N    0.31040   0.13739   0.84914   1.000
    N15     N    0.31046   0.63738   0.84922   1.000
    Zr16    Zr   0.75001   0.49990   0.49984   1.000
    O17     O    0.78160   0.55305   0.65222   1.000
    O18     O    0.67695   0.45278   0.55966   1.000
    O19     O    0.71845   0.44678   0.34730   1.000
    O20     O    0.82307   0.54700   0.44021   1.000
    O21     O    0.61811   0.54878   0.43062   1.000
    O22     O    0.88190   0.45098   0.56887   1.000
    Zr23    Zr   0.00006   0.74986   0.99994   1.000
    O24     O    0.92696   0.70265   0.94056   1.000
    O25     O    0.86807   0.79909   0.06825   1.000
    O26     O    0.03169   0.80308   0.84850   1.000
    O27     O    0.13211   0.70076   0.93128   1.000
    O28     O    0.96839   0.69663   0.15138   1.000
    O29     O    0.07316   0.79706   0.05905   1.000
    Zr30    Zr   0.50007   0.74998   0.99983   1.000
    O31     O    0.36815   0.79889   0.06781   1.000
    O32     O    0.53164   0.80310   0.84824   1.000
    O33     O    0.57309   0.79740   0.05920   1.000
    O34     O    0.46846   0.69672   0.15109   1.000
    O35     O    0.42709   0.70260   0.94021   1.000
    O36     O    0.63197   0.70100   0.93056   1.000
    Zr37    Zr   0.50010   0.24995   0.99938   1.000
    O38     O    0.53173   0.30314   0.84833   1.000
    O39     O    0.63214   0.20080   0.93099   1.000
    O40     O    0.42708   0.20258   0.93996   1.000
    O41     O    0.36821   0.29923   0.06719   1.000
    O42     O    0.46841   0.19685   0.15086   1.000
    O43     O    0.57317   0.29716   0.05878   1.000
    Zr44    Zr   0.25004   0.99983   0.49913   1.000
    O45     O    0.17693   0.95272   0.55918   1.000
    O46     O    0.38189   0.95080   0.56819   1.000
    O47     O    0.28181   0.05299   0.65125   1.000
    O48     O    0.32308   0.04709   0.43952   1.000
    O49     O    0.11802   0.04874   0.43019   1.000
    O50     O    0.21846   0.94672   0.34692   1.000
    Zr51    Zr   0.75001   0.00002   0.49946   1.000
    O52     O    0.67688   0.95280   0.55917   1.000
    O53     O    0.71832   0.94704   0.34738   1.000
    O54     O    0.82309   0.04703   0.43961   1.000
    O55     O    0.88191   0.95089   0.56851   1.000
    O56     O    0.61810   0.04915   0.43067   1.000
    O57     O    0.78183   0.05307   0.65146   1.000
    Zr58    Zr   0.25005   0.49985   0.49947   1.000
    O59     O    0.38196   0.45082   0.56861   1.000
    O60     O    0.28185   0.55299   0.65148   1.000
    O61     O    0.32313   0.54694   0.43967   1.000
    O62     O    0.21848   0.44695   0.34695   1.000
    O63     O    0.11801   0.54880   0.43081   1.000
    O64     O    0.17693   0.45281   0.55950   1.000
    Zr65    Zr   0.00010   0.24983   0.99960   1.000
    O66     O    0.07319   0.29733   0.05867   1.000
    O67     O    0.03166   0.30314   0.84844   1.000
    O68     O    0.86816   0.29884   0.06772   1.000
    O69     O    0.13211   0.20076   0.93107   1.000
    O70     O    0.96844   0.19665   0.15093   1.000
    O71     O    0.92712   0.20251   0.94009   1.000
loop_
    _geom_bond_atom_site_label_1
    _geom_bond_atom_site_label_2
    _geom_bond_distance
    _geom_bond_site_symmetry_2
    _ccdc_geom_bond_type
    Zr16   O17       2.79765      .   S
    N3     O17       3.78256      .   S
    Zr16   O18       2.01803      .   S
    N7     O18       3.07899      .   S
    Zr16   O19       2.79951      .   S
    N11    O19       3.79096      .   S
    Zr16   O20       2.01651      .   S
    N4     O20       3.07651      .   S
    Zr16   O21       3.27440      .   S
    N0     O21       4.33489      .   S
    Zr16   O22       3.27364      .   S
    N5     O22       4.33429  1_455   S
    Zr23   O24       2.02603  1_455   S
    N3     O24       3.08940      .   S
    Zr23   O25       3.27249  1_456   S
    N1     O25       4.33283      .   S
    Zr23   O26       2.77215      .   S
    N6     O26       3.76556      .   S
    Zr23   O27       3.27358      .   S
    N15    O27       4.33428      .   S
    Zr23   O28       2.77252  1_456   S
    N4     O28       3.76578      .   S
    Zr23   O29       2.02384  1_556   S
    N10    O29       3.08360      .   S
    Zr30   O31       3.26560  1_556   S
    N10    O31       4.32651      .   S
    Zr30   O32       2.77312      .   S
    N12    O32       3.76639      .   S
    Zr30   O33       2.02755  1_556   S
    N1     O33       3.08693      .   S
    Zr30   O34       2.77015  1_556   S
    N0     O34       3.76277      .   S
    Zr30   O35       2.02808      .   S
    N15    O35       3.08772      .   S
    Zr30   O36       3.27284      .   S
    N3     O36       4.32519      .   S
    Zr37   O38       2.76671      .   S
    N7     O38       3.76026      .   S
    Zr37   O39       3.27270      .   S
    N13    O39       4.33349      .   S
    Zr37   O40       2.02712      .   S
    N14    O40       3.08680      .   S
    Zr37   O41       3.26857  1_556   S
    N8     O41       4.33009      .   S
    Zr37   O42       2.77157  1_556   S
    N9     O42       3.76402      .   S
    Zr37   O43       2.02572  1_556   S
    N11    O43       3.08556      .   S
    Zr44   O45       2.02042      .   S
    N6     O45       3.08123      .   S
    Zr44   O46       3.27447      .   S
    N12    O46       4.33469      .   S
    Zr44   O47       2.79496  1_565   S
    N14    O47       3.78744      .   S
    Zr44   O48       2.01812  1_565   S
    N9     O48       3.07862      .   S
    Zr44   O49       3.27537  1_565   S
    N2     O49       4.33373  1_655   S
    Zr44   O50       2.79493      .   S
    N10    O50       3.78701      .   S
    Zr51   O52       2.01957  1_545   S
    N12    O52       3.08019      .   S
    Zr51   O53       2.79216  1_545   S
    N1     O53       3.78255      .   S
    Zr51   O54       2.01712      .   S
    N2     O54       3.07740      .   S
    Zr51   O55       3.27644  1_545   S
    N6     O55       4.33691  1_455   S
    Zr51   O56       3.27518      .   S
    N9     O56       4.33624      .   S
    Zr51   O57       2.79218      .   S
    N13    O57       3.78428      .   S
    Zr58   O59       3.27575      .   S
    N7     O59       4.33626      .   S
    Zr58   O60       2.79329      .   S
    N15    O60       3.78549      .   S
    Zr58   O61       2.01784      .   S
    N0     O61       3.07856      .   S
    Zr58   O62       2.79688      .   S
    N8     O62       3.78877      .   S
    Zr58   O63       3.27482      .   S
    N4     O63       4.33356  1_655   S
    Zr58   O64       2.01958      .   S
    N5     O64       3.08023      .   S
    Zr65   O66       2.02709  1_556   S
    N8     O66       3.08656      .   S
    Zr65   O67       2.76922      .   S
    N5     O67       3.76317      .   S
    Zr65   O68       3.26774  1_456   S
    N11    O68       4.32888      .   S
    Zr65   O69       3.27191      .   S
    N14    O69       4.33270      .   S
    Zr65   O70       2.77049  1_456   S
    N2     O70       3.76250      .   S
    Zr65   O71       2.02668  1_455   S
    N13    O71       3.08636      .   S
