# CIF file generated by openbabel 2.4.90, see http://openbabel.sf.net
data_I
_chemical_name_common ''
_cell_length_a 20.451
_cell_length_b 24.817
_cell_length_c 15.846
_cell_angle_alpha 89.76
_cell_angle_beta 89.797
_cell_angle_gamma 96.677
_space_group_name_H-M_alt 'P 1'
_space_group_name_Hall 'P 1'
loop_
    _symmetry_equiv_pos_as_xyz
    x,y,z
loop_
    _atom_site_label
    _atom_site_type_symbol
    _atom_site_fract_x
    _atom_site_fract_y
    _atom_site_fract_z
    _atom_site_occupancy
    Zr0     Zr   0.07942   0.22874   0.89539   1.000
    Zr1     Zr   0.07940   0.72864   0.89529   1.000
    Zr2     Zr   0.57943   0.22863   0.89538   1.000
    Zr3     Zr   0.57924   0.72916   0.89573   1.000
    Zr4     Zr   0.17072   0.02036   0.39273   1.000
    Zr5     Zr   0.17064   0.52044   0.39309   1.000
    Zr6     Zr   0.67047   0.02086   0.39313   1.000
    Zr7     Zr   0.67073   0.52035   0.39289   1.000
    Zr8     Zr   0.42062   0.27104   0.10356   1.000
    Zr9     Zr   0.42095   0.77083   0.10389   1.000
    Zr10    Zr   0.92096   0.27084   0.10382   1.000
    Zr11    Zr   0.92061   0.77100   0.10462   1.000
    Zr12    Zr   0.32951   0.47909   0.60582   1.000
    Zr13    Zr   0.32946   0.97920   0.60560   1.000
    Zr14    Zr   0.82941   0.47947   0.60701   1.000
    Zr15    Zr   0.82947   0.97911   0.60570   1.000
    Zr16    Zr   0.42812   0.18589   0.93280   1.000
    Zr17    Zr   0.42817   0.68594   0.93281   1.000
    Zr18    Zr   0.92820   0.18589   0.93281   1.000
    Zr19    Zr   0.92809   0.68619   0.93339   1.000
    Zr20    Zr   0.18598   0.17672   0.88443   1.000
    Zr21    Zr   0.18601   0.67668   0.88447   1.000
    Zr22    Zr   0.68604   0.17668   0.88447   1.000
    Zr23    Zr   0.68588   0.67732   0.88590   1.000
    Zr24    Zr   0.31894   0.05341   0.72556   1.000
    Zr25    Zr   0.31901   0.55336   0.72575   1.000
    Zr26    Zr   0.81900   0.05335   0.72568   1.000
    Zr27    Zr   0.81854   0.55322   0.72768   1.000
    Zr28    Zr   0.32199   0.06324   0.43260   1.000
    Zr29    Zr   0.32205   0.56307   0.43270   1.000
    Zr30    Zr   0.82205   0.06310   0.43265   1.000
    Zr31    Zr   0.82202   0.56321   0.43352   1.000
    Zr32    Zr   0.06425   0.07244   0.38275   1.000
    Zr33    Zr   0.06425   0.57266   0.38386   1.000
    Zr34    Zr   0.56436   0.07344   0.38402   1.000
    Zr35    Zr   0.56427   0.57246   0.38292   1.000
    Zr36    Zr   0.43137   0.19670   0.22422   1.000
    Zr37    Zr   0.43153   0.69653   0.22440   1.000
    Zr38    Zr   0.93150   0.19656   0.22440   1.000
    Zr39    Zr   0.93140   0.69637   0.22467   1.000
    Zr40    Zr   0.07203   0.31387   0.06631   1.000
    Zr41    Zr   0.07204   0.81340   0.06650   1.000
    Zr42    Zr   0.57199   0.31357   0.06650   1.000
    Zr43    Zr   0.57196   0.81404   0.06674   1.000
    Zr44    Zr   0.31440   0.32351   0.11264   1.000
    Zr45    Zr   0.31425   0.82258   0.11393   1.000
    Zr46    Zr   0.81424   0.32259   0.11394   1.000
    Zr47    Zr   0.81417   0.82316   0.11506   1.000
    Zr48    Zr   0.18148   0.44681   0.27219   1.000
    Zr49    Zr   0.18151   0.94663   0.27212   1.000
    Zr50    Zr   0.68151   0.44665   0.27216   1.000
    Zr51    Zr   0.68120   0.94700   0.27265   1.000
    Zr52    Zr   0.17793   0.43671   0.56664   1.000
    Zr53    Zr   0.17792   0.93662   0.56632   1.000
    Zr54    Zr   0.67800   0.43672   0.56660   1.000
    Zr55    Zr   0.67788   0.93661   0.56607   1.000
    Zr56    Zr   0.43569   0.42664   0.61576   1.000
    Zr57    Zr   0.43563   0.92676   0.61550   1.000
    Zr58    Zr   0.93569   0.42710   0.61609   1.000
    Zr59    Zr   0.93565   0.92664   0.61569   1.000
    Zr60    Zr   0.06861   0.30351   0.77546   1.000
    Zr61    Zr   0.06875   0.80345   0.77540   1.000
    Zr62    Zr   0.56876   0.30344   0.77551   1.000
    Zr63    Zr   0.56863   0.80338   0.77497   1.000
    Zr64    Zr   0.48389   0.17396   0.90743   1.000
    Zr65    Zr   0.48392   0.67404   0.90741   1.000
    Zr66    Zr   0.98396   0.17397   0.90740   1.000
    Zr67    Zr   0.98374   0.67419   0.90767   1.000
    Zr68    Zr   0.42257   0.21979   0.99227   1.000
    Zr69    Zr   0.42265   0.71988   0.99227   1.000
    Zr70    Zr   0.92267   0.21982   0.99220   1.000
    Zr71    Zr   0.92275   0.72014   0.99282   1.000
    Zr72    Zr   0.18313   0.21322   0.94103   1.000
    Zr73    Zr   0.18314   0.71320   0.94102   1.000
    Zr74    Zr   0.68317   0.21319   0.94103   1.000
    Zr75    Zr   0.68351   0.71493   0.94080   1.000
    Zr76    Zr   0.13446   0.16017   0.84107   1.000
    Zr77    Zr   0.13451   0.66010   0.84100   1.000
    Zr78    Zr   0.63454   0.16012   0.84107   1.000
    Zr79    Zr   0.63389   0.65983   0.84409   1.000
    Zr80    Zr   0.26652   0.03015   0.69098   1.000
    Zr81    Zr   0.26655   0.52997   0.69146   1.000
    Zr82    Zr   0.76655   0.03001   0.69133   1.000
    Zr83    Zr   0.76631   0.53014   0.69244   1.000
    Zr84    Zr   0.37546   0.03963   0.70426   1.000
    Zr85    Zr   0.37554   0.53965   0.70427   1.000
    Zr86    Zr   0.87552   0.03963   0.70423   1.000
    Zr87    Zr   0.87513   0.53926   0.70717   1.000
    Zr88    Zr   0.26614   0.07440   0.40675   1.000
    Zr89    Zr   0.26621   0.57432   0.40689   1.000
    Zr90    Zr   0.76621   0.07441   0.40692   1.000
    Zr91    Zr   0.76622   0.57420   0.40718   1.000
    Zr92    Zr   0.32766   0.02984   0.49304   1.000
    Zr93    Zr   0.32767   0.52971   0.49320   1.000
    Zr94    Zr   0.82768   0.02975   0.49316   1.000
    Zr95    Zr   0.82760   0.53023   0.49458   1.000
    Zr96    Zr   0.06644   0.03466   0.43784   1.000
    Zr97    Zr   0.06671   0.53538   0.43974   1.000
    Zr98    Zr   0.56692   0.03665   0.44064   1.000
    Zr99    Zr   0.56646   0.53471   0.43806   1.000
    Zr100   Zr   0.11637   0.09008   0.34059   1.000
    Zr101   Zr   0.11612   0.58989   0.34087   1.000
    Zr102   Zr   0.61613   0.09024   0.34056   1.000
    Zr103   Zr   0.61637   0.59005   0.34068   1.000
    Zr104   Zr   0.48369   0.21992   0.18867   1.000
    Zr105   Zr   0.48386   0.71978   0.18880   1.000
    Zr106   Zr   0.98384   0.21981   0.18883   1.000
    Zr107   Zr   0.98370   0.71964   0.18909   1.000
    Zr108   Zr   0.37481   0.21065   0.20371   1.000
    Zr109   Zr   0.37499   0.71055   0.20408   1.000
    Zr110   Zr   0.87497   0.21057   0.20400   1.000
    Zr111   Zr   0.87484   0.71033   0.20422   1.000
    Zr112   Zr   0.01639   0.32580   0.09214   1.000
    Zr113   Zr   0.01633   0.82516   0.09240   1.000
    Zr114   Zr   0.51633   0.32553   0.09220   1.000
    Zr115   Zr   0.51629   0.82598   0.09239   1.000
    Zr116   Zr   0.07731   0.27976   0.00706   1.000
    Zr117   Zr   0.07746   0.77956   0.00701   1.000
    Zr118   Zr   0.57733   0.27959   0.00710   1.000
    Zr119   Zr   0.57730   0.77999   0.00741   1.000
    Zr120   Zr   0.31710   0.28686   0.05630   1.000
    Zr121   Zr   0.31660   0.78496   0.05908   1.000
    Zr122   Zr   0.81658   0.28498   0.05907   1.000
    Zr123   Zr   0.81700   0.78652   0.05870   1.000
    Zr124   Zr   0.36606   0.34017   0.15575   1.000
    Zr125   Zr   0.36625   0.84011   0.15573   1.000
    Zr126   Zr   0.86624   0.34011   0.15573   1.000
    Zr127   Zr   0.86563   0.83973   0.15852   1.000
    Zr128   Zr   0.23370   0.46983   0.30755   1.000
    Zr129   Zr   0.23375   0.96970   0.30741   1.000
    Zr130   Zr   0.73374   0.46971   0.30748   1.000
    Zr131   Zr   0.73349   0.97005   0.30777   1.000
    Zr132   Zr   0.12488   0.46072   0.29281   1.000
    Zr133   Zr   0.12495   0.96065   0.29258   1.000
    Zr134   Zr   0.62494   0.46065   0.29265   1.000
    Zr135   Zr   0.62463   0.96099   0.29317   1.000
    Zr136   Zr   0.23373   0.42557   0.59276   1.000
    Zr137   Zr   0.23372   0.92562   0.59263   1.000
    Zr138   Zr   0.73384   0.42576   0.59285   1.000
    Zr139   Zr   0.73366   0.92567   0.59256   1.000
    Zr140   Zr   0.17237   0.46987   0.50582   1.000
    Zr141   Zr   0.17235   0.96968   0.50535   1.000
    Zr142   Zr   0.67236   0.46982   0.50570   1.000
    Zr143   Zr   0.67234   0.96967   0.50509   1.000
    Zr144   Zr   0.43312   0.46336   0.55904   1.000
    Zr145   Zr   0.43307   0.96355   0.55893   1.000
    Zr146   Zr   0.93320   0.46425   0.56000   1.000
    Zr147   Zr   0.93309   0.96338   0.55900   1.000
    Zr148   Zr   0.38393   0.40990   0.65927   1.000
    Zr149   Zr   0.38390   0.90999   0.65910   1.000
    Zr150   Zr   0.88385   0.40999   0.65920   1.000
    Zr151   Zr   0.88390   0.90990   0.65920   1.000
    Zr152   Zr   0.01631   0.28020   0.81102   1.000
    Zr153   Zr   0.01643   0.78018   0.81098   1.000
    Zr154   Zr   0.51644   0.28016   0.81105   1.000
    Zr155   Zr   0.51633   0.78031   0.81088   1.000
    Zr156   Zr   0.12518   0.28956   0.79590   1.000
    Zr157   Zr   0.12530   0.78952   0.79591   1.000
    Zr158   Zr   0.62531   0.28950   0.79600   1.000
    Zr159   Zr   0.62516   0.78940   0.79530   1.000
    O160    O    0.07475   0.79648   0.03676   1.000
    O161    O    0.07843   0.75410   0.95115   1.000
    O162    O    0.07467   0.29682   0.03669   1.000
    O163    O    0.07837   0.25425   0.95123   1.000
    O164    O    0.57466   0.29658   0.03680   1.000
    O165    O    0.57838   0.25411   0.95124   1.000
    O166    O    0.57463   0.79701   0.03708   1.000
    O167    O    0.57827   0.75457   0.95157   1.000
    O168    O    0.36886   0.27895   0.07993   1.000
    O169    O    0.31575   0.30519   0.08447   1.000
    O170    O    0.86881   0.77876   0.08166   1.000
    O171    O    0.81558   0.80484   0.08688   1.000
    O172    O    0.86877   0.27791   0.08145   1.000
    O173    O    0.81541   0.30378   0.08651   1.000
    O174    O    0.36878   0.77789   0.08149   1.000
    O175    O    0.31543   0.80377   0.08651   1.000
    O176    O    0.04421   0.31984   0.07923   1.000
    O177    O    0.04419   0.81928   0.07945   1.000
    O178    O    0.54416   0.31955   0.07935   1.000
    O179    O    0.54413   0.82001   0.07957   1.000
    O180    O    0.96867   0.29832   0.09798   1.000
    O181    O    0.46848   0.29829   0.09788   1.000
    O182    O    0.46862   0.79840   0.09814   1.000
    O183    O    0.96847   0.79808   0.09851   1.000
    O184    O    0.39334   0.30560   0.12966   1.000
    O185    O    0.45216   0.24548   0.14612   1.000
    O186    O    0.39772   0.24084   0.15364   1.000
    O187    O    0.42160   0.24541   0.04792   1.000
    O188    O    0.89360   0.30548   0.12978   1.000
    O189    O    0.95240   0.24532   0.14633   1.000
    O190    O    0.89797   0.24071   0.15391   1.000
    O191    O    0.92181   0.24533   0.04801   1.000
    O192    O    0.39360   0.80547   0.12981   1.000
    O193    O    0.45241   0.74530   0.14635   1.000
    O194    O    0.39797   0.74069   0.15399   1.000
    O195    O    0.42180   0.74535   0.04808   1.000
    O196    O    0.89312   0.80537   0.13157   1.000
    O197    O    0.95216   0.74532   0.14686   1.000
    O198    O    0.89773   0.74067   0.15442   1.000
    O199    O    0.92168   0.74557   0.04872   1.000
    O200    O    0.34023   0.33184   0.13420   1.000
    O201    O    0.34025   0.83135   0.13483   1.000
    O202    O    0.84024   0.33135   0.13484   1.000
    O203    O    0.83990   0.83144   0.13679   1.000
    O204    O    0.45753   0.20831   0.20645   1.000
    O205    O    0.45769   0.70816   0.20660   1.000
    O206    O    0.95767   0.20818   0.20662   1.000
    O207    O    0.95755   0.70800   0.20688   1.000
    O208    O    0.40309   0.20367   0.21397   1.000
    O209    O    0.90324   0.20356   0.21420   1.000
    O210    O    0.40326   0.70354   0.21424   1.000
    O211    O    0.90312   0.70335   0.21445   1.000
    O212    O    0.15323   0.95364   0.28235   1.000
    O213    O    0.20763   0.95816   0.28976   1.000
    O214    O    0.65323   0.45365   0.28241   1.000
    O215    O    0.70763   0.45818   0.28982   1.000
    O216    O    0.15318   0.45377   0.28250   1.000
    O217    O    0.20759   0.45832   0.28987   1.000
    O218    O    0.65292   0.95400   0.28291   1.000
    O219    O    0.70735   0.95853   0.29021   1.000
    O220    O    0.14784   0.99050   0.34266   1.000
    O221    O    0.64784   0.49050   0.34277   1.000
    O222    O    0.14776   0.49058   0.34295   1.000
    O223    O    0.64755   0.99093   0.34315   1.000
    O224    O    0.20224   0.99503   0.35007   1.000
    O225    O    0.70224   0.49503   0.35019   1.000
    O226    O    0.20217   0.49514   0.35032   1.000
    O227    O    0.70198   0.99546   0.35045   1.000
    O228    O    0.59024   0.08184   0.36229   1.000
    O229    O    0.64330   0.05555   0.36685   1.000
    O230    O    0.09031   0.08126   0.36167   1.000
    O231    O    0.14355   0.05522   0.36666   1.000
    O232    O    0.59032   0.58125   0.36180   1.000
    O233    O    0.64355   0.55520   0.36679   1.000
    O234    O    0.09018   0.58128   0.36237   1.000
    O235    O    0.14338   0.55517   0.36698   1.000
    O236    O    0.06535   0.05355   0.41030   1.000
    O237    O    0.56537   0.55358   0.41049   1.000
    O238    O    0.06548   0.55402   0.41180   1.000
    O239    O    0.56564   0.05505   0.41233   1.000
    O240    O    0.21843   0.04738   0.39974   1.000
    O241    O    0.11858   0.02751   0.41529   1.000
    O242    O    0.17154   0.99502   0.44904   1.000
    O243    O    0.71847   0.54727   0.40004   1.000
    O244    O    0.61860   0.52753   0.41548   1.000
    O245    O    0.67154   0.49508   0.44930   1.000
    O246    O    0.21842   0.54738   0.39999   1.000
    O247    O    0.11867   0.52791   0.41642   1.000
    O248    O    0.17151   0.49516   0.44945   1.000
    O249    O    0.71834   0.04763   0.40003   1.000
    O250    O    0.61870   0.02876   0.41689   1.000
    O251    O    0.67140   0.99526   0.44911   1.000
    O252    O    0.29406   0.06882   0.41968   1.000
    O253    O    0.29413   0.56869   0.41980   1.000
    O254    O    0.79413   0.06875   0.41979   1.000
    O255    O    0.79412   0.56871   0.42035   1.000
    O256    O    0.32483   0.04654   0.46282   1.000
    O257    O    0.82487   0.04642   0.46291   1.000
    O258    O    0.32486   0.54639   0.46295   1.000
    O259    O    0.82481   0.54672   0.46405   1.000
    O260    O    0.32856   0.00452   0.54932   1.000
    O261    O    0.82858   0.00443   0.54943   1.000
    O262    O    0.32859   0.50440   0.54951   1.000
    O263    O    0.82851   0.50485   0.55080   1.000
    O264    O    0.67511   0.95314   0.53558   1.000
    O265    O    0.17513   0.95315   0.53584   1.000
    O266    O    0.67518   0.45327   0.53615   1.000
    O267    O    0.17515   0.45329   0.53623   1.000
    O268    O    0.38127   0.97137   0.58227   1.000
    O269    O    0.43435   0.94515   0.58722   1.000
    O270    O    0.88128   0.97125   0.58235   1.000
    O271    O    0.93437   0.94501   0.58735   1.000
    O272    O    0.38132   0.47123   0.58243   1.000
    O273    O    0.43441   0.44500   0.58740   1.000
    O274    O    0.88131   0.47186   0.58351   1.000
    O275    O    0.93444   0.44567   0.58805   1.000
    O276    O    0.70577   0.93114   0.57931   1.000
    O277    O    0.20582   0.93112   0.57948   1.000
    O278    O    0.70592   0.43124   0.57973   1.000
    O279    O    0.20583   0.43114   0.57970   1.000
    O280    O    0.78156   0.95239   0.59913   1.000
    O281    O    0.28159   0.95241   0.59912   1.000
    O282    O    0.28162   0.45233   0.59929   1.000
    O283    O    0.78163   0.45261   0.59993   1.000
    O284    O    0.35668   0.94460   0.63235   1.000
    O285    O    0.29799   0.00468   0.64829   1.000
    O286    O    0.35246   0.00941   0.65493   1.000
    O287    O    0.85669   0.94451   0.63245   1.000
    O288    O    0.79801   0.00456   0.64852   1.000
    O289    O    0.85250   0.00937   0.65497   1.000
    O290    O    0.35672   0.44449   0.63255   1.000
    O291    O    0.29803   0.50453   0.64864   1.000
    O292    O    0.35252   0.50937   0.65505   1.000
    O293    O    0.85663   0.44473   0.63311   1.000
    O294    O    0.79786   0.50480   0.64973   1.000
    O295    O    0.85227   0.50936   0.65709   1.000
    O296    O    0.40977   0.91838   0.63730   1.000
    O297    O    0.90977   0.91827   0.63745   1.000
    O298    O    0.40981   0.41827   0.63752   1.000
    O299    O    0.90977   0.41854   0.63765   1.000
    O300    O    0.29273   0.04178   0.70827   1.000
    O301    O    0.79277   0.04168   0.70851   1.000
    O302    O    0.29278   0.54167   0.70861   1.000
    O303    O    0.79242   0.54168   0.71006   1.000
    O304    O    0.84726   0.04649   0.71496   1.000
    O305    O    0.34720   0.04652   0.71491   1.000
    O306    O    0.34727   0.54651   0.71501   1.000
    O307    O    0.84683   0.54624   0.71743   1.000
    O308    O    0.59689   0.79639   0.78514   1.000
    O309    O    0.54248   0.79185   0.79293   1.000
    O310    O    0.09702   0.79648   0.78565   1.000
    O311    O    0.04259   0.79182   0.79319   1.000
    O312    O    0.09689   0.29653   0.78568   1.000
    O313    O    0.04246   0.29185   0.79324   1.000
    O314    O    0.59703   0.29647   0.78576   1.000
    O315    O    0.54260   0.29180   0.79328   1.000
    O316    O    0.60220   0.75928   0.84552   1.000
    O317    O    0.10230   0.25915   0.84565   1.000
    O318    O    0.10235   0.75908   0.84560   1.000
    O319    O    0.60237   0.25907   0.84569   1.000
    O320    O    0.54778   0.75474   0.85331   1.000
    O321    O    0.04791   0.75441   0.85314   1.000
    O322    O    0.04787   0.25447   0.85321   1.000
    O323    O    0.54793   0.25440   0.85322   1.000
    O324    O    0.16026   0.66839   0.86274   1.000
    O325    O    0.10695   0.69437   0.86815   1.000
    O326    O    0.66029   0.16840   0.86277   1.000
    O327    O    0.60699   0.19437   0.86823   1.000
    O328    O    0.16022   0.16845   0.86275   1.000
    O329    O    0.10694   0.19445   0.86823   1.000
    O330    O    0.65988   0.66858   0.86500   1.000
    O331    O    0.60656   0.69449   0.86991   1.000
    O332    O    0.18456   0.19497   0.91273   1.000
    O333    O    0.68460   0.19494   0.91275   1.000
    O334    O    0.18457   0.69494   0.91275   1.000
    O335    O    0.68470   0.69613   0.91335   1.000
    O336    O    0.03157   0.70141   0.90148   1.000
    O337    O    0.13127   0.72092   0.91816   1.000
    O338    O    0.53166   0.20130   0.90141   1.000
    O339    O    0.63130   0.22091   0.91821   1.000
    O340    O    0.03169   0.20135   0.90140   1.000
    O341    O    0.13128   0.22098   0.91821   1.000
    O342    O    0.53158   0.70160   0.90157   1.000
    O343    O    0.63138   0.72204   0.91827   1.000
    O344    O    0.95608   0.17993   0.92011   1.000
    O345    O    0.45605   0.67999   0.92011   1.000
    O346    O    0.45600   0.17993   0.92012   1.000
    O347    O    0.95591   0.68019   0.92053   1.000
    O348    O    0.42534   0.20284   0.96254   1.000
    O349    O    0.92543   0.20286   0.96251   1.000
    O350    O    0.42541   0.70291   0.96254   1.000
    O351    O    0.92542   0.70316   0.96311   1.000
    N352    N    0.43996   0.61203   0.34818   1.000
    O353    O    0.39621   0.59402   0.37987   1.000
    O354    O    0.43684   0.64346   0.30235   1.000
    O355    O    0.48621   0.59766   0.36140   1.000
    N356    N    0.68981   0.86270   0.14979   1.000
    O357    O    0.73607   0.84833   0.13657   1.000
    O358    O    0.68663   0.89406   0.19529   1.000
    O359    O    0.64611   0.84482   0.11858   1.000
    N360    N    0.93987   0.11202   0.34806   1.000
    O361    O    0.98600   0.09764   0.36125   1.000
    O362    O    0.89616   0.09403   0.37977   1.000
    O363    O    0.93679   0.14346   0.30227   1.000
    N364    N    0.81008   0.63758   0.84961   1.000
    O365    O    0.76387   0.65203   0.86128   1.000
    O366    O    0.81318   0.60619   0.80460   1.000
    O367    O    0.85385   0.65545   0.88119   1.000
    N368    N    0.93982   0.61206   0.34882   1.000
    O369    O    0.93672   0.64341   0.30283   1.000
    O370    O    0.98597   0.59775   0.36214   1.000
    O371    O    0.89613   0.59410   0.38057   1.000
    N372    N    0.06007   0.38779   0.65126   1.000
    O373    O    0.10380   0.40577   0.61953   1.000
    O374    O    0.01379   0.40206   0.63789   1.000
    O375    O    0.06323   0.35645   0.69727   1.000
    N376    N    0.06012   0.88757   0.65099   1.000
    O377    O    0.06332   0.85630   0.69707   1.000
    O378    O    0.10382   0.90560   0.61924   1.000
    O379    O    0.01381   0.90175   0.63757   1.000
    N380    N    0.56018   0.38762   0.65120   1.000
    O381    O    0.56336   0.35633   0.69727   1.000
    O382    O    0.60389   0.40567   0.61948   1.000
    O383    O    0.51386   0.40179   0.63774   1.000
    N384    N    0.19006   0.36278   0.14871   1.000
    O385    O    0.23632   0.34852   0.13500   1.000
    O386    O    0.18690   0.39404   0.19443   1.000
    O387    O    0.14628   0.34482   0.11774   1.000
    N388    N    0.43987   0.11244   0.34833   1.000
    O389    O    0.43672   0.14376   0.30234   1.000
    O390    O    0.48619   0.09828   0.36188   1.000
    O391    O    0.39613   0.09435   0.37991   1.000
    N392    N    0.19001   0.86220   0.14917   1.000
    O393    O    0.18689   0.89361   0.19470   1.000
    O394    O    0.23623   0.84780   0.13579   1.000
    O395    O    0.14625   0.84426   0.11815   1.000
    N396    N    0.69000   0.36226   0.14924   1.000
    O397    O    0.64623   0.34436   0.11818   1.000
    O398    O    0.73622   0.34784   0.13583   1.000
    O399    O    0.68688   0.39366   0.19475   1.000
    N400    N    0.56004   0.88754   0.65059   1.000
    O401    O    0.60375   0.90557   0.61888   1.000
    O402    O    0.51375   0.90178   0.63726   1.000
    O403    O    0.56322   0.85623   0.69664   1.000
    N404    N    0.81048   0.13736   0.84921   1.000
    O405    O    0.85414   0.15519   0.88058   1.000
    O406    O    0.81365   0.10612   0.80346   1.000
    O407    O    0.76419   0.15166   0.86260   1.000
    N408    N    0.31040   0.13739   0.84914   1.000
    O409    O    0.35407   0.15522   0.88053   1.000
    O410    O    0.31358   0.10616   0.80337   1.000
    O411    O    0.26411   0.15169   0.86255   1.000
    N412    N    0.31046   0.63738   0.84922   1.000
    O413    O    0.35412   0.65523   0.88060   1.000
    O414    O    0.31365   0.60614   0.80349   1.000
    O415    O    0.26416   0.65167   0.86262   1.000
loop_
    _geom_bond_atom_site_label_1
    _geom_bond_atom_site_label_2
    _geom_bond_distance
    _geom_bond_site_symmetry_2
    _ccdc_geom_bond_type
    Zr117  O160      0.63908      .   S
    Zr41   O160      0.63908      .   S
    Zr117  O161      1.09115  1_554   S
    Zr1    O161      1.09115      .   S
    Zr116  O162      0.63974      .   S
    Zr40   O162      0.63974      .   S
    Zr116  O163      1.09172  1_554   S
    Zr0    O163      1.09172      .   S
    Zr118  O164      0.63958      .   S
    Zr42   O164      0.63958      .   S
    Zr118  O165      1.09157  1_554   S
    Zr2    O165      1.09157      .   S
    Zr119  O166      0.63980      .   S
    Zr43   O166      0.63980      .   S
    Zr119  O167      1.09021  1_554   S
    Zr3    O167      1.09021      .   S
    Zr120  O168      1.16182      .   S
    Zr8    O168      1.16182      .   S
    Zr120  O169      0.64145      .   S
    Zr44   O169      0.64145      .   S
    Zr123  O170      1.15828      .   S
    Zr11   O170      1.15828      .   S
    Zr123  O171      0.64157      .   S
    Zr47   O171      0.64157      .   S
    Zr122  O172      1.15817      .   S
    Zr10   O172      1.15817      .   S
    Zr122  O173      0.64159      .   S
    Zr46   O173      0.64159      .   S
    Zr121  O174      1.15803      .   S
    Zr9    O174      1.15803      .   S
    Zr121  O175      0.64155      .   S
    Zr45   O175      0.64155      .   S
    Zr40   O176      0.63754      .   S
    Zr112  O176      0.63754      .   S
    Zr41   O177      0.63772      .   S
    Zr113  O177      0.63772      .   S
    Zr42   O178      0.63761      .   S
    Zr114  O178      0.63761      .   S
    Zr43   O179      0.63746      .   S
    Zr115  O179      0.63746      .   S
    Zr112  O180      1.12695  1_455   S
    Zr10   O180      1.12695      .   S
    Zr114  O181      1.12609      .   S
    Zr8    O181      1.12609      .   S
    Zr115  O182      1.12725      .   S
    Zr9    O182      1.12725      .   S
    Zr113  O183      1.12466  1_455   S
    Zr11   O183      1.12466      .   S
    Zr8    O184      1.15361      .   S
    Zr124  O184      1.15361      .   S
    Zr8    O185      1.16942      .   S
    Zr104  O185      1.16942      .   S
    Zr8    O186      1.14955      .   S
    Zr108  O186      1.14955      .   S
    Zr8    O187      1.09077      .   S
    Zr68   O187      1.09077  1_556   S
    Zr10   O188      1.15509      .   S
    Zr126  O188      1.15509      .   S
    Zr10   O189      1.16715      .   S
    Zr106  O189      1.16715      .   S
    Zr10   O190      1.14936      .   S
    Zr110  O190      1.14936      .   S
    Zr10   O191      1.09101      .   S
    Zr70   O191      1.09101  1_556   S
    Zr9    O192      1.15494      .   S
    Zr125  O192      1.15494      .   S
    Zr9    O193      1.16701      .   S
    Zr105  O193      1.16701      .   S
    Zr9    O194      1.14940      .   S
    Zr109  O194      1.14940      .   S
    Zr9    O195      1.09054      .   S
    Zr69   O195      1.09054  1_556   S
    Zr11   O196      1.15696      .   S
    Zr127  O196      1.15696      .   S
    Zr11   O197      1.16850      .   S
    Zr107  O197      1.16850      .   S
    Zr11   O198      1.14853      .   S
    Zr111  O198      1.14853      .   S
    Zr11   O199      1.09144      .   S
    Zr71   O199      1.09144  1_556   S
    Zr44   O200      0.64408      .   S
    Zr124  O200      0.64408      .   S
    Zr45   O201      0.64395      .   S
    Zr125  O201      0.64395      .   S
    Zr46   O202      0.64392      .   S
    Zr126  O202      0.64392      .   S
    Zr47   O203      0.64385      .   S
    Zr127  O203      0.64385      .   S
    Zr104  O204      0.64110      .   S
    Zr36   O204      0.64110      .   S
    Zr105  O205      0.64144      .   S
    Zr37   O205      0.64144      .   S
    Zr106  O206      0.64141      .   S
    Zr38   O206      0.64141      .   S
    Zr107  O207      0.64124      .   S
    Zr39   O207      0.64124      .   S
    Zr108  O208      0.64384      .   S
    Zr36   O208      0.64384      .   S
    Zr110  O209      0.64366      .   S
    Zr38   O209      0.64366      .   S
    Zr109  O210      0.64352      .   S
    Zr37   O210      0.64352      .   S
    Zr111  O211      0.64384      .   S
    Zr39   O211      0.64384      .   S
    Zr49   O212      0.64347      .   S
    Zr133  O212      0.64347      .   S
    Zr49   O213      0.64157      .   S
    Zr129  O213      0.64157      .   S
    Zr50   O214      0.64348      .   S
    Zr134  O214      0.64348      .   S
    Zr50   O215      0.64157      .   S
    Zr130  O215      0.64157      .   S
    Zr48   O216      0.64353      .   S
    Zr132  O216      0.64353      .   S
    Zr48   O217      0.64149      .   S
    Zr128  O217      0.64149      .   S
    Zr51   O218      0.64350      .   S
    Zr135  O218      0.64350      .   S
    Zr51   O219      0.64132      .   S
    Zr131  O219      0.64132      .   S
    Zr133  O220      1.15095      .   S
    Zr4    O220      1.15095  1_545   S
    Zr134  O221      1.15129      .   S
    Zr7    O221      1.15129      .   S
    Zr132  O222      1.15164      .   S
    Zr5    O222      1.15164      .   S
    Zr135  O223      1.15124      .   S
    Zr6    O223      1.15124  1_545   S
    Zr129  O224      1.16716      .   S
    Zr4    O224      1.16716  1_545   S
    Zr130  O225      1.16726      .   S
    Zr7    O225      1.16726      .   S
    Zr128  O226      1.16799      .   S
    Zr5    O226      1.16799      .   S
    Zr131  O227      1.16837      .   S
    Zr6    O227      1.16837  1_545   S
    Zr102  O228      0.64398      .   S
    Zr34   O228      0.64398      .   S
    Zr102  O229      1.15462      .   S
    Zr6    O229      1.15462      .   S
    Zr100  O230      0.64381      .   S
    Zr32   O230      0.64381      .   S
    Zr100  O231      1.15687      .   S
    Zr4    O231      1.15687      .   S
    Zr103  O232      0.64384      .   S
    Zr35   O232      0.64384      .   S
    Zr103  O233      1.15699      .   S
    Zr7    O233      1.15699      .   S
    Zr101  O234      0.64402      .   S
    Zr33   O234      0.64402      .   S
    Zr101  O235      1.15538      .   S
    Zr5    O235      1.15538      .   S
    Zr32   O236      0.64151      .   S
    Zr96   O236      0.64151      .   S
    Zr35   O237      0.64153      .   S
    Zr99   O237      0.64153      .   S
    Zr33   O238      0.64166      .   S
    Zr97   O238      0.64166      .   S
    Zr34   O239      0.64146      .   S
    Zr98   O239      0.64146      .   S
    Zr4    O240      1.12388      .   S
    Zr88   O240      1.12388      .   S
    Zr4    O241      1.15677      .   S
    Zr96   O241      1.15677      .   S
    Zr4    O242      1.09078  1_545   S
    Zr141  O242      1.09078      .   S
    Zr7    O243      1.12367      .   S
    Zr91   O243      1.12367      .   S
    Zr7    O244      1.15694      .   S
    Zr99   O244      1.15694      .   S
    Zr7    O245      1.09086      .   S
    Zr142  O245      1.09086      .   S
    Zr5    O246      1.12400      .   S
    Zr89   O246      1.12400      .   S
    Zr5    O247      1.15926      .   S
    Zr97   O247      1.15926      .   S
    Zr5    O248      1.09082      .   S
    Zr140  O248      1.09082      .   S
    Zr6    O249      1.12341      .   S
    Zr90   O249      1.12341      .   S
    Zr6    O250      1.16068      .   S
    Zr98   O250      1.16068      .   S
    Zr6    O251      1.09040  1_545   S
    Zr143  O251      1.09040      .   S
    Zr88   O252      0.63742      .   S
    Zr28   O252      0.63742      .   S
    Zr89   O253      0.63750      .   S
    Zr29   O253      0.63750      .   S
    Zr90   O254      0.63753      .   S
    Zr30   O254      0.63753      .   S
    Zr91   O255      0.63747      .   S
    Zr31   O255      0.63747      .   S
    Zr28   O256      0.63924      .   S
    Zr92   O256      0.63924      .   S
    Zr30   O257      0.63909      .   S
    Zr94   O257      0.63909      .   S
    Zr29   O258      0.63912      .   S
    Zr93   O258      0.63912      .   S
    Zr31   O259      0.63932      .   S
    Zr95   O259      0.63932      .   S
    Zr92   O260      1.09024      .   S
    Zr13   O260      1.09024  1_565   S
    Zr94   O261      1.09013      .   S
    Zr15   O261      1.09013  1_565   S
    Zr93   O262      1.09048      .   S
    Zr12   O262      1.09048      .   S
    Zr95   O263      1.09031      .   S
    Zr14   O263      1.09031      .   S
    Zr143  O264      0.63937      .   S
    Zr55   O264      0.63937      .   S
    Zr141  O265      0.63944      .   S
    Zr53   O265      0.63944      .   S
    Zr142  O266      0.63945      .   S
    Zr54   O266      0.63945      .   S
    Zr140  O267      0.63929      .   S
    Zr52   O267      0.63929      .   S
    Zr145  O268      1.15876      .   S
    Zr13   O268      1.15876      .   S
    Zr145  O269      0.64119      .   S
    Zr57   O269      0.64119      .   S
    Zr147  O270      1.15911      .   S
    Zr15   O270      1.15911      .   S
    Zr147  O271      0.64144      .   S
    Zr59   O271      0.64144      .   S
    Zr144  O272      1.15929      .   S
    Zr12   O272      1.15929      .   S
    Zr144  O273      0.64147      .   S
    Zr56   O273      0.64147      .   S
    Zr146  O274      1.15975      .   S
    Zr14   O274      1.15975      .   S
    Zr146  O275      0.64172      .   S
    Zr58   O275      0.64172      .   S
    Zr55   O276      0.63749      .   S
    Zr139  O276      0.63749      .   S
    Zr53   O277      0.63745      .   S
    Zr137  O277      0.63745      .   S
    Zr54   O278      0.63751      .   S
    Zr138  O278      0.63751      .   S
    Zr52   O279      0.63745      .   S
    Zr136  O279      0.63745      .   S
    Zr139  O280      1.12280      .   S
    Zr15   O280      1.12280      .   S
    Zr137  O281      1.12287      .   S
    Zr13   O281      1.12287      .   S
    Zr136  O282      1.12295      .   S
    Zr12   O282      1.12295      .   S
    Zr138  O283      1.12332      .   S
    Zr14   O283      1.12332      .   S
    Zr13   O284      1.15624      .   S
    Zr149  O284      1.15624      .   S
    Zr13   O285      1.16903  1_565   S
    Zr80   O285      1.16903      .   S
    Zr13   O286      1.14892  1_565   S
    Zr84   O286      1.14892      .   S
    Zr15   O287      1.15608      .   S
    Zr151  O287      1.15608      .   S
    Zr15   O288      1.16971  1_565   S
    Zr82   O288      1.16971      .   S
    Zr15   O289      1.14909  1_565   S
    Zr86   O289      1.14909      .   S
    Zr12   O290      1.15588      .   S
    Zr148  O290      1.15588      .   S
    Zr12   O291      1.16980      .   S
    Zr81   O291      1.16980      .   S
    Zr12   O292      1.14886      .   S
    Zr85   O292      1.14886      .   S
    Zr14   O293      1.15513      .   S
    Zr150  O293      1.15513      .   S
    Zr14   O294      1.16822      .   S
    Zr83   O294      1.16822      .   S
    Zr14   O295      1.15136      .   S
    Zr87   O295      1.15136      .   S
    Zr57   O296      0.64412      .   S
    Zr149  O296      0.64412      .   S
    Zr59   O297      0.64385      .   S
    Zr151  O297      0.64385      .   S
    Zr56   O298      0.64393      .   S
    Zr148  O298      0.64393      .   S
    Zr58   O299      0.64397      .   S
    Zr150  O299      0.64397      .   S
    Zr80   O300      0.64135      .   S
    Zr24   O300      0.64135      .   S
    Zr82   O301      0.64126      .   S
    Zr26   O301      0.64126      .   S
    Zr81   O302      0.64125      .   S
    Zr25   O302      0.64125      .   S
    Zr83   O303      0.64139      .   S
    Zr27   O303      0.64139      .   S
    Zr86   O304      0.64369      .   S
    Zr26   O304      0.64369      .   S
    Zr84   O305      0.64368      .   S
    Zr24   O305      0.64368      .   S
    Zr85   O306      0.64371      .   S
    Zr25   O306      0.64371      .   S
    Zr87   O307      0.64358      .   S
    Zr27   O307      0.64358      .   S
    Zr63   O308      0.64341      .   S
    Zr159  O308      0.64341      .   S
    Zr63   O309      0.64152      .   S
    Zr155  O309      0.64152      .   S
    Zr61   O310      0.64366      .   S
    Zr157  O310      0.64366      .   S
    Zr61   O311      0.64137      .   S
    Zr153  O311      0.64137      .   S
    Zr60   O312      0.64376      .   S
    Zr156  O312      0.64376      .   S
    Zr60   O313      0.64130      .   S
    Zr152  O313      0.64130      .   S
    Zr62   O314      0.64367      .   S
    Zr158  O314      0.64367      .   S
    Zr62   O315      0.64135      .   S
    Zr154  O315      0.64135      .   S
    Zr159  O316      1.15029      .   S
    Zr3    O316      1.15029      .   S
    Zr156  O317      1.14898      .   S
    Zr0    O317      1.14898      .   S
    Zr157  O318      1.14933      .   S
    Zr1    O318      1.14933      .   S
    Zr158  O319      1.14914      .   S
    Zr2    O319      1.14914      .   S
    Zr155  O320      1.16748      .   S
    Zr3    O320      1.16748      .   S
    Zr153  O321      1.16840      .   S
    Zr1    O321      1.16840      .   S
    Zr152  O322      1.16889      .   S
    Zr0    O322      1.16889      .   S
    Zr154  O323      1.16853      .   S
    Zr2    O323      1.16853      .   S
    Zr77   O324      0.64419      .   S
    Zr21   O324      0.64419      .   S
    Zr77   O325      1.15693      .   S
    Zr1    O325      1.15693      .   S
    Zr78   O326      0.64382      .   S
    Zr22   O326      0.64382      .   S
    Zr78   O327      1.15683      .   S
    Zr2    O327      1.15683      .   S
    Zr76   O328      0.64379      .   S
    Zr20   O328      0.64379      .   S
    Zr76   O329      1.15696      .   S
    Zr0    O329      1.15696      .   S
    Zr79   O330      0.64381      .   S
    Zr23   O330      0.64381      .   S
    Zr79   O331      1.15454      .   S
    Zr3    O331      1.15454      .   S
    Zr20   O332      0.64164      .   S
    Zr72   O332      0.64164      .   S
    Zr22   O333      0.64159      .   S
    Zr74   O333      0.64159      .   S
    Zr21   O334      0.64158      .   S
    Zr73   O334      0.64158      .   S
    Zr23   O335      0.64170      .   S
    Zr75   O335      0.64170      .   S
    Zr1    O336      1.12602      .   S
    Zr67   O336      1.12602  1_655   S
    Zr1    O337      1.15871      .   S
    Zr73   O337      1.15871      .   S
    Zr2    O338      1.12625      .   S
    Zr64   O338      1.12625      .   S
    Zr2    O339      1.15849      .   S
    Zr74   O339      1.15849      .   S
    Zr0    O340      1.12619      .   S
    Zr66   O340      1.12619  1_655   S
    Zr0    O341      1.15851      .   S
    Zr72   O341      1.15851      .   S
    Zr3    O342      1.12695      .   S
    Zr65   O342      1.12695      .   S
    Zr3    O343      1.15828      .   S
    Zr75   O343      1.15828      .   S
    Zr66   O344      0.63770      .   S
    Zr18   O344      0.63770      .   S
    Zr65   O345      0.63747      .   S
    Zr17   O345      0.63747      .   S
    Zr64   O346      0.63762      .   S
    Zr16   O346      0.63762      .   S
    Zr67   O347      0.63771      .   S
    Zr19   O347      0.63771      .   S
    Zr16   O348      0.63970      .   S
    Zr68   O348      0.63970      .   S
    Zr18   O349      0.63950      .   S
    Zr70   O349      0.63950      .   S
    Zr17   O350      0.63988      .   S
    Zr69   O350      0.63988      .   S
    Zr19   O351      0.63952      .   S
    Zr71   O351      0.63952      .   S
    N352   O353      1.07430      .   S
    Zr29   O353      1.81828      .   S
    N352   O354      1.07104      .   S
    Zr37   O354      1.81474      .   S
    N352   O355      1.07010      .   S
    Zr35   O355      1.81385      .   S
    N356   O357      1.06958      .   S
    Zr47   O357      1.81293      .   S
    N356   O358      1.07041      .   S
    Zr51   O358      1.81326      .   S
    N356   O359      1.07375      .   S
    Zr43   O359      1.81729      .   S
    N360   O361      1.06772      .   S
    Zr32   O361      1.81753  1_455   S
    N360   O362      1.07369      .   S
    Zr30   O362      1.81767      .   S
    N360   O363      1.07069      .   S
    Zr38   O363      1.81404      .   S
    N364   O365      1.06482      .   S
    Zr23   O365      1.82230      .   S
    N364   O366      1.06554      .   S
    Zr27   O366      1.80880      .   S
    N364   O367      1.07747      .   S
    Zr19   O367      1.82099      .   S
    N368   O369      1.07116      .   S
    Zr39   O369      1.81479      .   S
    N368   O370      1.06779      .   S
    Zr33   O370      1.81735  1_455   S
    N368   O371      1.07366      .   S
    Zr31   O371      1.81768      .   S
    N372   O373      1.07412      .   S
    Zr52   O373      1.81809      .   S
    N372   O374      1.06999      .   S
    Zr58   O374      1.81372  1_655   S
    N372   O375      1.07143      .   S
    Zr60   O375      1.81512      .   S
    N376   O377      1.07112      .   S
    Zr61   O377      1.81506      .   S
    N376   O378      1.07426      .   S
    Zr53   O378      1.81830      .   S
    N376   O379      1.06986      .   S
    Zr59   O379      1.81335  1_655   S
    N380   O381      1.07114      .   S
    Zr62   O381      1.81469      .   S
    N380   O382      1.07442      .   S
    Zr54   O382      1.81857      .   S
    N380   O383      1.06988      .   S
    Zr56   O383      1.81351      .   S
    N384   O385      1.06987      .   S
    Zr44   O385      1.81349      .   S
    N384   O386      1.07103      .   S
    Zr48   O386      1.81437      .   S
    N384   O387      1.07378      .   S
    Zr40   O387      1.81738      .   S
    N388   O389      1.07081      .   S
    Zr36   O389      1.81418      .   S
    N388   O390      1.07012      .   S
    Zr34   O390      1.81383      .   S
    N388   O391      1.07411      .   S
    Zr28   O391      1.81808      .   S
    N392   O393      1.07158      .   S
    Zr49   O393      1.81499      .   S
    N392   O394      1.06964      .   S
    Zr45   O394      1.81321      .   S
    N392   O395      1.07368      .   S
    Zr41   O395      1.81756      .   S
    N396   O397      1.07392      .   S
    Zr42   O397      1.81767      .   S
    N396   O398      1.06988      .   S
    Zr46   O398      1.81354      .   S
    N396   O399      1.07108      .   S
    Zr50   O399      1.81446      .   S
    N400   O401      1.07423      .   S
    Zr55   O401      1.81822      .   S
    N400   O402      1.06969      .   S
    Zr57   O402      1.81326      .   S
    N400   O403      1.07130      .   S
    Zr63   O403      1.81490      .   S
    N404   O405      1.07401      .   S
    Zr18   O405      1.81785      .   S
    N404   O406      1.07091      .   S
    Zr26   O406      1.81427      .   S
    N404   O407      1.06984      .   S
    Zr22   O407      1.81349      .   S
    N408   O409      1.07407      .   S
    Zr16   O409      1.81795      .   S
    N408   O410      1.07101      .   S
    Zr24   O410      1.81440      .   S
    N408   O411      1.06987      .   S
    Zr20   O411      1.81341      .   S
    N412   O413      1.07401      .   S
    Zr17   O413      1.81782      .   S
    N412   O414      1.07089      .   S
    Zr25   O414      1.81420      .   S
    N412   O415      1.06987      .   S
    Zr21   O415      1.81340      .   S
