# CIF file generated by openbabel 2.4.90, see http://openbabel.sf.net
data_I
_chemical_name_common ''
_cell_length_a 18.743
_cell_length_b 18.765
_cell_length_c 18.762
_cell_angle_alpha 59.98
_cell_angle_beta 60.083
_cell_angle_gamma 60.109
_space_group_name_H-M_alt 'P 1'
_space_group_name_Hall 'P 1'
loop_
    _symmetry_equiv_pos_as_xyz
    x,y,z
loop_
    _atom_site_label
    _atom_site_type_symbol
    _atom_site_fract_x
    _atom_site_fract_y
    _atom_site_fract_z
    _atom_site_occupancy
    H0      H    0.73413   0.73416   0.50424   1.000
    H1      H    0.73406   0.73449   0.02730   1.000
    H2      H    0.50426   0.02790   0.73400   1.000
    H3      H    0.02729   0.50463   0.73401   1.000
    H4      H    0.73405   0.50515   0.02700   1.000
    H5      H    0.73418   0.02658   0.50518   1.000
    H6      H    0.50476   0.73382   0.73365   1.000
    H7      H    0.02810   0.73394   0.73364   1.000
    H8      H    0.73405   0.02771   0.73423   1.000
    H9      H    0.73426   0.50474   0.73405   1.000
    H10     H    0.50434   0.73398   0.02771   1.000
    H11     H    0.02802   0.73394   0.50412   1.000
    H12     H    0.26583   0.26583   0.49577   1.000
    H13     H    0.26581   0.26554   0.97267   1.000
    H14     H    0.97265   0.49535   0.26605   1.000
    H15     H    0.49572   0.97207   0.26597   1.000
    H16     H    0.49563   0.26587   0.97229   1.000
    H17     H    0.97194   0.26599   0.49590   1.000
    H18     H    0.26574   0.49520   0.26591   1.000
    H19     H    0.26592   0.97222   0.26582   1.000
    H20     H    0.97187   0.26606   0.26630   1.000
    H21     H    0.49523   0.26611   0.26639   1.000
    H22     H    0.26601   0.49478   0.97303   1.000
    H23     H    0.26583   0.97339   0.49482   1.000
    C24     C    0.25669   0.97150   0.38557   1.000
    C25     C    0.97067   0.25684   0.38632   1.000
    C26     C    0.38573   0.38592   0.25691   1.000
    C27     C    0.38607   0.38560   0.97132   1.000
    C28     C    0.25661   0.38579   0.38610   1.000
    C29     C    0.97089   0.38596   0.38624   1.000
    C30     C    0.38592   0.25652   0.97127   1.000
    C31     C    0.38604   0.97091   0.25670   1.000
    C32     C    0.25670   0.38543   0.97152   1.000
    C33     C    0.97094   0.38598   0.25697   1.000
    C34     C    0.38604   0.97137   0.38567   1.000
    C35     C    0.38575   0.25677   0.38629   1.000
    C36     C    0.02930   0.74313   0.61368   1.000
    C37     C    0.74330   0.02845   0.61445   1.000
    C38     C    0.61426   0.61403   0.74308   1.000
    C39     C    0.61394   0.61430   0.02870   1.000
    C40     C    0.61422   0.74320   0.61372   1.000
    C41     C    0.61396   0.02860   0.61431   1.000
    C42     C    0.74326   0.61455   0.02851   1.000
    C43     C    0.02901   0.61401   0.74305   1.000
    C44     C    0.61400   0.74342   0.02876   1.000
    C45     C    0.02906   0.61400   0.61380   1.000
    C46     C    0.74337   0.61418   0.61388   1.000
    C47     C    0.29982   0.97161   0.42857   1.000
    C48     C    0.97063   0.29995   0.30018   1.000
    C49     C    0.42879   0.29993   0.30017   1.000
    C50     C    0.29990   0.42848   0.97147   1.000
    C51     C    0.29967   0.42884   0.29993   1.000
    C52     C    0.97064   0.29991   0.42939   1.000
    C53     C    0.42911   0.29966   0.97110   1.000
    C54     C    0.29985   0.97101   0.29968   1.000
    C55     C    0.29977   0.29947   0.97131   1.000
    C56     C    0.97101   0.42898   0.30005   1.000
    C57     C    0.42917   0.97091   0.29978   1.000
    C58     C    0.29970   0.29976   0.42928   1.000
    C59     C    0.02931   0.70005   0.57063   1.000
    C60     C    0.70013   0.02893   0.70035   1.000
    C61     C    0.70032   0.57111   0.70005   1.000
    C62     C    0.57086   0.70024   0.02892   1.000
    C63     C    0.57120   0.70003   0.69984   1.000
    C64     C    0.70018   0.02835   0.57144   1.000
    C65     C    0.70011   0.57146   0.02856   1.000
    C66     C    0.02933   0.70004   0.69982   1.000
    C67     C    0.70015   0.70051   0.02872   1.000
    C68     C    0.57082   0.02905   0.70020   1.000
    C69     C    0.02892   0.57100   0.70000   1.000
    C70     C    0.70027   0.70022   0.57070   1.000
loop_
    _geom_bond_atom_site_label_1
    _geom_bond_atom_site_label_2
    _geom_bond_distance
    _geom_bond_site_symmetry_2
    _ccdc_geom_bond_type
    H4     C65       1.08746      .   S
    H1     C67       1.08692      .   S
    H10    C62       1.08759      .   S
    C42    C65       1.39951      .   S
    C42    C67       1.39953      .   S
    C65    C39       1.39944      .   S
    C39    C62       1.39942      .   S
    C67    C44       1.39970      .   S
    C44    C62       1.39954      .   S
    C31    C54       1.39960      .   S
    C31    C57       1.39955      .   S
    C26    C51       1.39973      .   S
    C26    C49       1.39955      .   S
    C33    C56       1.39954      .   S
    C33    C48       1.39951      .   S
    H19    C54       1.08754      .   S
    H18    C51       1.08752      .   S
    H15    C57       1.08753      .   S
    H14    C56       1.08749      .   S
    H20    C48       1.08807      .   S
    H21    C49       1.08751      .   S
    C54    C24       1.39945      .   S
    C57    C34       1.39926      .   S
    C51    C28       1.39972      .   S
    C56    C29       1.39950      .   S
    C49    C35       1.39965      .   S
    C48    C25       1.39959      .   S
    C24    C47       1.39939      .   S
    C34    C47       1.39933      .   S
    C28    C58       1.39971      .   S
    C29    C52       1.39944      .   S
    C35    C58       1.39978      .   S
    C25    C52       1.39948      .   S
    C47    H23       1.08738      .   S
    C58    H12       1.08758      .   S
    C52    H17       1.08764      .   S
    H11    C59       1.08759      .   S
    H0     C70       1.08729      .   S
    H5     C64       1.08749      .   S
    C59    C36       1.39957      .   S
    C59    C45       1.39944      .   S
    C70    C40       1.39988      .   S
    C70    C46       1.39982      .   S
    C64    C41       1.39929      .   S
    C64    C37       1.39926      .   S
    C36    C66       1.39953      .   S
    C40    C63       1.39965      .   S
    C45    C69       1.39961      .   S
    C46    C61       1.39976      .   S
    C41    C68       1.39920      .   S
    C37    C60       1.39955      .   S
    C66    H7        1.08745      .   S
    C66    C43       1.39947      .   S
    C63    H6        1.08755      .   S
    C63    C38       1.39954      .   S
    C69    H3        1.08750      .   S
    C69    C43       1.39951      .   S
    C61    H9        1.08756      .   S
    C61    C38       1.39972      .   S
    C68    H2        1.08754      .   S
    C60    H8        1.08752      .   S
    C53    C30       1.39958      .   S
    C53    C27       1.39939      .   S
    C53    H16       1.08752      .   S
    C30    C55       1.39975      .   S
    C55    C32       1.39956      .   S
    C55    H13       1.08761      .   S
    C27    C50       1.39937      .   S
    C50    C32       1.39954      .   S
    C50    H22       1.08740      .   S
