# CIF file generated by openbabel 2.4.90, see http://openbabel.sf.net
data_I
_chemical_name_common ''
_cell_length_a 18.743
_cell_length_b 18.765
_cell_length_c 18.762
_cell_angle_alpha 59.98
_cell_angle_beta 60.083
_cell_angle_gamma 60.109
_space_group_name_H-M_alt 'P 1'
_space_group_name_Hall 'P 1'
loop_
    _symmetry_equiv_pos_as_xyz
    x,y,z
loop_
    _atom_site_label
    _atom_site_type_symbol
    _atom_site_fract_x
    _atom_site_fract_y
    _atom_site_fract_z
    _atom_site_occupancy
    Cu0     Cu   0.00023   0.56534   0.99996   1.000
    Cu1     Cu   0.43460   0.99982   0.56541   1.000
    Cu2     Cu   0.99971   0.43470   0.10000   1.000
    Cu3     Cu   0.56537   0.43465   0.00013   1.000
    Cu4     Cu   0.99977   0.00006   0.43460   1.000
    Cu5     Cu   0.43461   0.56530   0.99980   1.000
    Cu6     Cu   0.00020   0.99991   0.56538   1.000
    Cu7     Cu   0.56539   0.00009   0.80000   1.000
    Cu8     Cu   0.99991   0.43459   0.56500   1.000
    Cu9     Cu   0.43452   0.99988   0.99996   1.000
    Cu10    Cu   0.00004   0.56538   0.43451   1.000
    H11     H    0.73413   0.73416   0.50424   1.000
    H12     H    0.73406   0.73449   0.02730   1.000
    H13     H    0.50426   0.02790   0.73400   1.000
    H14     H    0.02729   0.50463   0.73401   1.000
    H15     H    0.73405   0.50515   0.02700   1.000
    H16     H    0.73418   0.02658   0.50518   1.000
    H17     H    0.50476   0.73382   0.73365   1.000
    H18     H    0.02810   0.73394   0.73364   1.000
    H19     H    0.73405   0.02771   0.73423   1.000
    H20     H    0.73426   0.50474   0.73405   1.000
    H21     H    0.50434   0.73398   0.02771   1.000
    H22     H    0.02802   0.73394   0.50412   1.000
    H23     H    0.26583   0.26583   0.49577   1.000
    H24     H    0.26581   0.26554   0.97267   1.000
    H25     H    0.97265   0.49535   0.26605   1.000
    H26     H    0.49572   0.97207   0.26597   1.000
    H27     H    0.49563   0.26587   0.97229   1.000
    H28     H    0.97194   0.26599   0.49590   1.000
    H29     H    0.26574   0.49520   0.26591   1.000
    H30     H    0.26592   0.97222   0.26582   1.000
    H31     H    0.97187   0.26606   0.26630   1.000
    Cu32    Cu   0.56537   0.00017   0.43460   1.000
    H33     H    0.49523   0.26611   0.26639   1.000
    H34     H    0.26601   0.49478   0.97303   1.000
    H35     H    0.26583   0.97339   0.49482   1.000
    C36     C    0.25669   0.97150   0.38557   1.000
    C37     C    0.97067   0.25684   0.38632   1.000
    C38     C    0.38573   0.38592   0.25691   1.000
    C39     C    0.38607   0.38560   0.97132   1.000
    C40     C    0.25661   0.38579   0.38610   1.000
    C41     C    0.97089   0.38596   0.38624   1.000
    C42     C    0.38592   0.25652   0.97127   1.000
    C43     C    0.38604   0.97091   0.25670   1.000
    C44     C    0.25670   0.38543   0.97152   1.000
    C45     C    0.97094   0.38598   0.25697   1.000
    C46     C    0.38604   0.97137   0.38567   1.000
    C47     C    0.38575   0.25677   0.38629   1.000
    C48     C    0.02930   0.74313   0.61368   1.000
    C49     C    0.74330   0.02845   0.61445   1.000
    C50     C    0.61426   0.61403   0.74308   1.000
    C51     C    0.61394   0.61430   0.02870   1.000
    C52     C    0.61422   0.74320   0.61372   1.000
    C53     C    0.61396   0.02860   0.61431   1.000
    C54     C    0.74326   0.61455   0.02851   1.000
    C55     C    0.02901   0.61401   0.74305   1.000
    C56     C    0.61400   0.74342   0.02876   1.000
    C57     C    0.61394   0.02904   0.74331   1.000
    C58     C    0.02906   0.61400   0.61380   1.000
    C59     C    0.74337   0.61418   0.61388   1.000
    C60     C    0.57001   0.56977   0.83672   1.000
    C61     C    0.56968   0.56998   0.02361   1.000
    C62     C    0.83695   0.02311   0.57000   1.000
    C63     C    0.02404   0.83674   0.56946   1.000
    C64     C    0.56979   0.83693   0.02358   1.000
    C65     C    0.56972   0.02392   0.83683   1.000
    C66     C    0.83688   0.56996   0.56960   1.000
    C67     C    0.02389   0.56976   0.56960   1.000
    C68     C    0.56973   0.02339   0.57008   1.000
    C69     C    0.56998   0.83677   0.56948   1.000
    C70     C    0.83687   0.57037   0.02334   1.000
    C71     C    0.02372   0.56981   0.83672   1.000
    C72     C    0.42996   0.43018   0.16327   1.000
    C73     C    0.43035   0.42991   0.97640   1.000
    C74     C    0.97595   0.16322   0.43052   1.000
    C75     C    0.16304   0.97684   0.42973   1.000
    C76     C    0.16309   0.42966   0.97669   1.000
    C77     C    0.97624   0.43020   0.16300   1.000
    C78     C    0.42998   0.16320   0.43056   1.000
    C79     C    0.43028   0.97659   0.42990   1.000
    C80     C    0.97608   0.43018   0.43045   1.000
    C81     C    0.16310   0.43002   0.43030   1.000
    C82     C    0.43011   0.16302   0.97643   1.000
    C83     C    0.43025   0.97602   0.16318   1.000
    C84     C    0.29982   0.97161   0.42857   1.000
    C85     C    0.97063   0.29995   0.30018   1.000
    C86     C    0.42879   0.29993   0.30017   1.000
    C87     C    0.29990   0.42848   0.97147   1.000
    C88     C    0.29967   0.42884   0.29993   1.000
    C89     C    0.97064   0.29991   0.42939   1.000
    C90     C    0.42911   0.29966   0.97110   1.000
    C91     C    0.29985   0.97101   0.29968   1.000
    C92     C    0.29977   0.29947   0.97131   1.000
    C93     C    0.97101   0.42898   0.30005   1.000
    C94     C    0.42917   0.97091   0.29978   1.000
    C95     C    0.29970   0.29976   0.42928   1.000
    C96     C    0.02931   0.70005   0.57063   1.000
    C97     C    0.70013   0.02893   0.70035   1.000
    C98     C    0.70032   0.57111   0.70005   1.000
    C99     C    0.57086   0.70024   0.02892   1.000
    C100    C    0.57120   0.70003   0.69984   1.000
    C101    C    0.70018   0.02835   0.57144   1.000
    C102    C    0.70011   0.57146   0.02856   1.000
    C103    C    0.02933   0.70004   0.69982   1.000
    C104    C    0.70015   0.70051   0.02872   1.000
    C105    C    0.57082   0.02905   0.70020   1.000
    C106    C    0.02892   0.57100   0.70000   1.000
    C107    C    0.70027   0.70022   0.57070   1.000
    O108    O    0.61394   0.49232   0.87335   1.000
    O109    O    0.49215   0.61382   0.02060   1.000
    O110    O    0.87362   0.02011   0.61422   1.000
    O111    O    0.02083   0.87332   0.49200   1.000
    O112    O    0.61378   0.87349   0.02066   1.000
    O113    O    0.49220   0.02087   0.87325   1.000
    O114    O    0.87340   0.61390   0.49210   1.000
    O115    O    0.02085   0.49225   0.61366   1.000
    O116    O    0.61369   0.02056   0.49257   1.000
    O117    O    0.49250   0.87309   0.61345   1.000
    O118    O    0.87314   0.49291   0.02046   1.000
    O119    O    0.02092   0.61373   0.87318   1.000
    O120    O    0.50746   0.38632   0.12688   1.000
    O121    O    0.38641   0.50739   0.97921   1.000
    O122    O    0.97881   0.12678   0.38655   1.000
    O123    O    0.12674   0.97978   0.50720   1.000
    O124    O    0.12637   0.38581   0.97965   1.000
    O125    O    0.97946   0.50765   0.12672   1.000
    O126    O    0.38604   0.12656   0.50805   1.000
    O127    O    0.50779   0.97963   0.38598   1.000
    O128    O    0.97900   0.38622   0.50802   1.000
    O129    O    0.12669   0.50754   0.38625   1.000
    O130    O    0.50764   0.12666   0.97942   1.000
    O131    O    0.38624   0.97891   0.12660   1.000
    O132    O    0.38603   0.50763   0.12664   1.000
    O133    O    0.50787   0.38608   0.97939   1.000
    O134    O    0.12637   0.97986   0.38580   1.000
    O135    O    0.97918   0.12664   0.50790   1.000
    O136    O    0.38610   0.12645   0.97939   1.000
    O137    O    0.50776   0.97911   0.12675   1.000
    O138    O    0.12658   0.38609   0.50780   1.000
    O139    O    0.97910   0.50770   0.38639   1.000
    O140    O    0.38630   0.97944   0.50740   1.000
    O141    O    0.50746   0.12688   0.38659   1.000
    O142    O    0.12685   0.50713   0.97955   1.000
    O143    O    0.97902   0.38630   0.12683   1.000
    O144    O    0.49252   0.61365   0.87311   1.000
    O145    O    0.61362   0.49252   0.02076   1.000
    O146    O    0.02117   0.87319   0.61343   1.000
    O147    O    0.87326   0.02016   0.49283   1.000
    O148    O    0.87357   0.61424   0.02038   1.000
    O149    O    0.02051   0.49236   0.87330   1.000
    O150    O    0.61393   0.87342   0.49199   1.000
    O151    O    0.49221   0.02033   0.61401   1.000
    O152    O    0.02099   0.61371   0.49202   1.000
    O153    O    0.87329   0.49244   0.61372   1.000
    O154    O    0.49228   0.87329   0.02055   1.000
    O155    O    0.61373   0.02100   0.87337   1.000
loop_
    _geom_bond_atom_site_label_1
    _geom_bond_atom_site_label_2
    _geom_bond_distance
    _geom_bond_site_symmetry_2
    _ccdc_geom_bond_type
    Cu3    O145      1.97373      .   S
    Cu3    O120      1.97594      .   S
    Cu3    O108      1.97586  1_554   S
    Cu3    O133      1.97389  1_554   S
    O148   C70       1.27849      .   S
    O148   Cu0       1.97435  1_654   S
    O118   C70       1.27869      .   S
    O154   C64       1.27867      .   S
    O154   Cu9       1.97483  1_554   S
    O109   C61       1.27875      .   S
    O109   Cu5       1.97447  1_554   S
    O112   C64       1.27861      .   S
    O145   C61       1.27857      .   S
    C70    C54       1.49533      .   S
    C64    C56       1.49510      .   S
    C61    C51       1.49499      .   S
    H15    C102      1.08746      .   S
    H12    C104      1.08692      .   S
    H21    C99       1.08759      .   S
    C54    C102      1.39951      .   S
    C54    C104      1.39953      .   S
    C102   C51       1.39944      .   S
    C51    C99       1.39942      .   S
    C104   C56       1.39970      .   S
    C56    C99       1.39954      .   S
    O131   C83       1.27950      .   S
    O131   Cu9       1.97330  1_554   S
    O132   C72       1.27860      .   S
    O132   Cu5       1.97669  1_554   S
    O125   C77       1.27891      .   S
    O137   C83       1.27862      .   S
    O143   C77       1.27400      .   S
    O143   Cu2       0.96296      .   S
    O120   C72       1.27866      .   S
    C77    C45       1.50018      .   S
    C77    Cu2       1.00813      .   S
    C83    C43       1.49499      .   S
    C72    C38       1.49570      .   S
    C43    C91       1.39960      .   S
    C43    C94       1.39955      .   S
    C38    C88       1.39973      .   S
    C38    C86       1.39955      .   S
    C45    C93       1.39954      .   S
    C45    C85       1.39951      .   S
    H30    C91       1.08754      .   S
    H29    C88       1.08752      .   S
    H26    C94       1.08753      .   S
    H25    C93       1.08749      .   S
    H31    C85       1.08807      .   S
    H33    C86       1.08751      .   S
    C91    C36       1.39945      .   S
    C94    C46       1.39926      .   S
    C88    C40       1.39972      .   S
    C93    C41       1.39950      .   S
    C86    C47       1.39965      .   S
    C85    C37       1.39959      .   S
    C36    C84       1.39939      .   S
    C36    C75       1.49487      .   S
    C46    C84       1.39933      .   S
    C46    C79       1.49471      .   S
    O134   C75       1.27854      .   S
    O134   Cu4       1.97377  1_465   S
    O127   C79       1.27856      .   S
    O127   Cu32      1.97326  1_565   S
    C40    C95       1.39971      .   S
    C40    C81       1.49583      .   S
    C41    C89       1.39944      .   S
    C41    C80       1.49524      .   S
    O129   C81       1.27867      .   S
    O129   Cu10      1.97579      .   S
    C47    C95       1.39978      .   S
    C47    C78       1.49553      .   S
    C37    C89       1.39948      .   S
    C37    C74       1.49496      .   S
    O139   C80       1.27860      .   S
    O139   Cu10      1.97370  1_655   S
    O122   C74       1.27858      .   S
    O122   Cu4       1.97442      .   S
    O141   C78       1.27870      .   S
    O141   Cu32      1.97557      .   S
    C84    H35       1.08738      .   S
    C95    H23       1.08758      .   S
    C89    H28       1.08764      .   S
    C75    O123      1.27868      .   S
    C79    O140      1.27864      .   S
    C81    O138      1.27770      .   S
    C80    O128      1.27856      .   S
    C74    O135      1.27739      .   S
    C78    O126      1.27852      .   S
    Cu10   O152      1.97427      .   S
    Cu10   O114      1.97560  1_455   S
    Cu32   O150      1.97539  1_545   S
    Cu32   O116      1.97329      .   S
    Cu4    O111      1.97429  1_645   S
    Cu4    O147      1.97362      .   S
    O150   C69       1.27859      .   S
    O111   C63       1.27863      .   S
    O152   C67       1.27859      .   S
    O114   C66       1.27779      .   S
    O116   C68       1.27869      .   S
    O147   C62       1.27373      .   S
    H22    C96       1.08759      .   S
    H11    C107      1.08729      .   S
    H16    C101      1.08749      .   S
    O123   Cu6       1.97392      .   S
    O140   Cu1       1.97346      .   S
    O138   Cu8       1.97452  1_455   S
    O135   Cu6       1.97411  1_645   S
    O128   Cu8       1.96574      .   S
    O126   Cu1       1.97520  1_545   S
    Cu8    O115      1.98175  1_655   S
    Cu8    O153      1.97675      .   S
    Cu6    O146      1.97455      .   S
    Cu6    O110      1.97343  1_465   S
    Cu1    O117      1.97593      .   S
    Cu1    O151      1.97317  1_565   S
    C63    O146      1.27854      .   S
    C63    C48       1.49496      .   S
    C69    O117      1.27869      .   S
    C69    C52       1.49548      .   S
    C66    O153      1.27916      .   S
    C66    C59       1.49617      .   S
    C67    O115      1.27858      .   S
    C67    C58       1.49514      .   S
    C62    O110      1.28351      .   S
    C62    C49       1.49492      .   S
    C68    O151      1.27856      .   S
    C68    C53       1.49458      .   S
    C96    C48       1.39957      .   S
    C96    C58       1.39944      .   S
    C107   C52       1.39988      .   S
    C107   C59       1.39982      .   S
    C101   C53       1.39929      .   S
    C101   C49       1.39926      .   S
    C48    C103      1.39953      .   S
    C52    C100      1.39965      .   S
    C58    C106      1.39961      .   S
    C59    C98       1.39976      .   S
    C53    C105      1.39920      .   S
    C49    C97       1.39955      .   S
    C103   H18       1.08745      .   S
    C103   C55       1.39947      .   S
    C100   H17       1.08755      .   S
    C100   C50       1.39954      .   S
    C106   H14       1.08750      .   S
    C106   C55       1.39951      .   S
    C98    H20       1.08756      .   S
    C98    C50       1.39972      .   S
    C105   H13       1.08754      .   S
    C105   C57       1.39978      .   S
    C97    H19       1.08752      .   S
    C97    C57       1.39961      .   S
    C55    C71       1.49534      .   S
    C50    C60       1.49574      .   S
    C57    Cu7       1.09711      .   S
    C60    O144      1.27868      .   S
    C60    O108      1.27855      .   S
    C71    O119      1.27867      .   S
    C71    O149      1.27858      .   S
    C65    O113      1.27861      .   S
    C65    O155      1.27859      .   S
    C65    Cu7       1.04188      .   S
    O144   Cu5       1.97519      .   S
    O119   Cu0       1.97550      .   S
    C90    C42       1.39958      .   S
    C90    C39       1.39939      .   S
    C90    H27       1.08752      .   S
    C42    C92       1.39975      .   S
    C42    C82       1.49516      .   S
    C92    C44       1.39956      .   S
    C92    H24       1.08761      .   S
    C39    C87       1.39937      .   S
    C39    C73       1.49501      .   S
    C87    C44       1.39954      .   S
    C87    H34       1.08740      .   S
    C44    C76       1.49530      .   S
    C73    O121      1.27857      .   S
    C73    O133      1.27856      .   S
    C82    O136      1.27851      .   S
    C82    O130      1.27869      .   S
    C76    O142      1.27867      .   S
    C76    O124      1.27852      .   S
    O121   Cu5       1.97305      .   S
    O136   Cu9       1.97422  1_545   S
    O142   Cu0       1.97488      .   S
    O113   Cu7       1.43003      .   S
    O113   Cu9       1.97471  1_545   S
    O125   Cu0       1.97484  1_654   S
    O125   Cu2       1.49945      .   S
    O155   Cu7       2.23806      .   S
    Cu32   Cu1       2.45574  1_545   S
    Cu3    Cu5       2.45544  1_554   S
    Cu4    Cu6       2.45631  1_645   S
    Cu8    Cu10      2.45054  1_655   S
