# CIF file generated by openbabel 2.4.90, see http://openbabel.sf.net
data_I
_chemical_name_common ''
_cell_length_a 18.743
_cell_length_b 18.765
_cell_length_c 18.762
_cell_angle_alpha 59.98
_cell_angle_beta 60.083
_cell_angle_gamma 60.109
_space_group_name_H-M_alt 'P 1'
_space_group_name_Hall 'P 1'
loop_
    _symmetry_equiv_pos_as_xyz
    x,y,z
loop_
    _atom_site_label
    _atom_site_type_symbol
    _atom_site_fract_x
    _atom_site_fract_y
    _atom_site_fract_z
    _atom_site_occupancy
    Cu0     Cu   0.00023   0.56534   0.99996   1.000
    Cu1     Cu   0.43460   0.99982   0.56541   1.000
    Cu2     Cu   0.99971   0.43470   0.10000   1.000
    Cu3     Cu   0.56537   0.43465   0.00013   1.000
    Cu4     Cu   0.99977   0.00006   0.43460   1.000
    Cu5     Cu   0.43461   0.56530   0.99980   1.000
    Cu6     Cu   0.00020   0.99991   0.56538   1.000
    Cu7     Cu   0.56539   0.00009   0.80000   1.000
    Cu8     Cu   0.99991   0.43459   0.56500   1.000
    Cu9     Cu   0.43452   0.99988   0.99996   1.000
    Cu10    Cu   0.00004   0.56538   0.43451   1.000
    Cu11    Cu   0.56537   0.00017   0.43460   1.000
    C12     C    0.61394   0.02904   0.74331   1.000
    C13     C    0.57001   0.56977   0.83672   1.000
    C14     C    0.56968   0.56998   0.02361   1.000
    C15     C    0.83695   0.02311   0.57000   1.000
    C16     C    0.02404   0.83674   0.56946   1.000
    C17     C    0.56979   0.83693   0.02358   1.000
    C18     C    0.56972   0.02392   0.83683   1.000
    C19     C    0.83688   0.56996   0.56960   1.000
    C20     C    0.02389   0.56976   0.56960   1.000
    C21     C    0.56973   0.02339   0.57008   1.000
    C22     C    0.56998   0.83677   0.56948   1.000
    C23     C    0.83687   0.57037   0.02334   1.000
    C24     C    0.02372   0.56981   0.83672   1.000
    C25     C    0.42996   0.43018   0.16327   1.000
    C26     C    0.43035   0.42991   0.97640   1.000
    C27     C    0.97595   0.16322   0.43052   1.000
    C28     C    0.16304   0.97684   0.42973   1.000
    C29     C    0.16309   0.42966   0.97669   1.000
    C30     C    0.97624   0.43020   0.16300   1.000
    C31     C    0.42998   0.16320   0.43056   1.000
    C32     C    0.43028   0.97659   0.42990   1.000
    C33     C    0.97608   0.43018   0.43045   1.000
    C34     C    0.16310   0.43002   0.43030   1.000
    C35     C    0.43011   0.16302   0.97643   1.000
    C36     C    0.43025   0.97602   0.16318   1.000
    O37     O    0.61394   0.49232   0.87335   1.000
    O38     O    0.49215   0.61382   0.02060   1.000
    O39     O    0.87362   0.02011   0.61422   1.000
    O40     O    0.02083   0.87332   0.49200   1.000
    O41     O    0.61378   0.87349   0.02066   1.000
    O42     O    0.49220   0.02087   0.87325   1.000
    O43     O    0.87340   0.61390   0.49210   1.000
    O44     O    0.02085   0.49225   0.61366   1.000
    O45     O    0.61369   0.02056   0.49257   1.000
    O46     O    0.49250   0.87309   0.61345   1.000
    O47     O    0.87314   0.49291   0.02046   1.000
    O48     O    0.02092   0.61373   0.87318   1.000
    O49     O    0.50746   0.38632   0.12688   1.000
    O50     O    0.38641   0.50739   0.97921   1.000
    O51     O    0.97881   0.12678   0.38655   1.000
    O52     O    0.12674   0.97978   0.50720   1.000
    O53     O    0.12637   0.38581   0.97965   1.000
    O54     O    0.97946   0.50765   0.12672   1.000
    O55     O    0.38604   0.12656   0.50805   1.000
    O56     O    0.50779   0.97963   0.38598   1.000
    O57     O    0.97900   0.38622   0.50802   1.000
    O58     O    0.12669   0.50754   0.38625   1.000
    O59     O    0.50764   0.12666   0.97942   1.000
    O60     O    0.38624   0.97891   0.12660   1.000
    O61     O    0.38603   0.50763   0.12664   1.000
    O62     O    0.50787   0.38608   0.97939   1.000
    O63     O    0.12637   0.97986   0.38580   1.000
    O64     O    0.97918   0.12664   0.50790   1.000
    O65     O    0.38610   0.12645   0.97939   1.000
    O66     O    0.50776   0.97911   0.12675   1.000
    O67     O    0.12658   0.38609   0.50780   1.000
    O68     O    0.97910   0.50770   0.38639   1.000
    O69     O    0.38630   0.97944   0.50740   1.000
    O70     O    0.50746   0.12688   0.38659   1.000
    O71     O    0.12685   0.50713   0.97955   1.000
    O72     O    0.97902   0.38630   0.12683   1.000
    O73     O    0.49252   0.61365   0.87311   1.000
    O74     O    0.61362   0.49252   0.02076   1.000
    O75     O    0.02117   0.87319   0.61343   1.000
    O76     O    0.87326   0.02016   0.49283   1.000
    O77     O    0.87357   0.61424   0.02038   1.000
    O78     O    0.02051   0.49236   0.87330   1.000
    O79     O    0.61393   0.87342   0.49199   1.000
    O80     O    0.49221   0.02033   0.61401   1.000
    O81     O    0.02099   0.61371   0.49202   1.000
    O82     O    0.87329   0.49244   0.61372   1.000
    O83     O    0.49228   0.87329   0.02055   1.000
    O84     O    0.61373   0.02100   0.87337   1.000
loop_
    _geom_bond_atom_site_label_1
    _geom_bond_atom_site_label_2
    _geom_bond_distance
    _geom_bond_site_symmetry_2
    _ccdc_geom_bond_type
    Cu3    O74       1.97373      .   S
    Cu3    O49       1.97594      .   S
    Cu3    O37       1.97586  1_554   S
    Cu3    O62       1.97389  1_554   S
    O77    C23       1.27849      .   S
    O77    Cu0       1.97435  1_654   S
    O47    C23       1.27869      .   S
    O83    C17       1.27867      .   S
    O83    Cu9       1.97483  1_554   S
    O38    C14       1.27875      .   S
    O38    Cu5       1.97447  1_554   S
    O41    C17       1.27861      .   S
    O74    C14       1.27857      .   S
    O60    C36       1.27950      .   S
    O60    Cu9       1.97330  1_554   S
    O61    C25       1.27860      .   S
    O61    Cu5       1.97669  1_554   S
    O54    C30       1.27891      .   S
    O66    C36       1.27862      .   S
    O72    C30       1.27400      .   S
    O72    Cu2       0.96296      .   S
    O49    C25       1.27866      .   S
    C30    Cu2       1.00813      .   S
    O63    C28       1.27854      .   S
    O63    Cu4       1.97377  1_465   S
    O56    C32       1.27856      .   S
    O56    Cu11      1.97326  1_565   S
    O58    C34       1.27867      .   S
    O58    Cu10      1.97579      .   S
    O68    C33       1.27860      .   S
    O68    Cu10      1.97370  1_655   S
    O51    C27       1.27858      .   S
    O51    Cu4       1.97442      .   S
    O70    C31       1.27870      .   S
    O70    Cu11      1.97557      .   S
    C28    O52       1.27868      .   S
    C32    O69       1.27864      .   S
    C34    O67       1.27770      .   S
    C33    O57       1.27856      .   S
    C27    O64       1.27739      .   S
    C31    O55       1.27852      .   S
    Cu10   O81       1.97427      .   S
    Cu10   O43       1.97560  1_455   S
    Cu11   O79       1.97539  1_545   S
    Cu11   O45       1.97329      .   S
    Cu4    O40       1.97429  1_645   S
    Cu4    O76       1.97362      .   S
    O79    C22       1.27859      .   S
    O40    C16       1.27863      .   S
    O81    C20       1.27859      .   S
    O43    C19       1.27779      .   S
    O45    C21       1.27869      .   S
    O76    C15       1.27373      .   S
    O52    Cu6       1.97392      .   S
    O69    Cu1       1.97346      .   S
    O67    Cu8       1.97452  1_455   S
    O64    Cu6       1.97411  1_645   S
    O57    Cu8       1.96574      .   S
    O55    Cu1       1.97520  1_545   S
    Cu8    O44       1.98175  1_655   S
    Cu8    O82       1.97675      .   S
    Cu6    O75       1.97455      .   S
    Cu6    O39       1.97343  1_465   S
    Cu1    O46       1.97593      .   S
    Cu1    O80       1.97317  1_565   S
    C16    O75       1.27854      .   S
    C22    O46       1.27869      .   S
    C19    O82       1.27916      .   S
    C20    O44       1.27858      .   S
    C15    O39       1.28351      .   S
    C21    O80       1.27856      .   S
    C12    Cu7       1.09711      .   S
    C13    O73       1.27868      .   S
    C13    O37       1.27855      .   S
    C24    O48       1.27867      .   S
    C24    O78       1.27858      .   S
    C18    O42       1.27861      .   S
    C18    O84       1.27859      .   S
    C18    Cu7       1.04188      .   S
    O73    Cu5       1.97519      .   S
    O48    Cu0       1.97550      .   S
    C26    O50       1.27857      .   S
    C26    O62       1.27856      .   S
    C35    O65       1.27851      .   S
    C35    O59       1.27869      .   S
    C29    O71       1.27867      .   S
    C29    O53       1.27852      .   S
    O50    Cu5       1.97305      .   S
    O65    Cu9       1.97422  1_545   S
    O71    Cu0       1.97488      .   S
    O42    Cu7       1.43003      .   S
    O42    Cu9       1.97471  1_545   S
    O54    Cu0       1.97484  1_654   S
    O54    Cu2       1.49945      .   S
    O84    Cu7       2.23806      .   S
    Cu11   Cu1       2.45574  1_545   S
    Cu3    Cu5       2.45544  1_554   S
    Cu4    Cu6       2.45631  1_645   S
    Cu8    Cu10      2.45054  1_655   S
