# CIF file generated by openbabel 2.4.90, see http://openbabel.sf.net
data_I
_chemical_name_common ''
_cell_length_a 18.743
_cell_length_b 18.765
_cell_length_c 18.762
_cell_angle_alpha 59.98
_cell_angle_beta 60.083
_cell_angle_gamma 60.109
_space_group_name_H-M_alt 'P 1'
_space_group_name_Hall 'P 1'
loop_
    _symmetry_equiv_pos_as_xyz
    x,y,z
loop_
    _atom_site_label
    _atom_site_type_symbol
    _atom_site_fract_x
    _atom_site_fract_y
    _atom_site_fract_z
    _atom_site_occupancy
    N0      N    0.65742   0.65728   0.65702   1.000
    N1      N    0.97125   0.34278   0.34304   1.000
    N2      N    0.02870   0.65719   0.65697   1.000
    N3      N    0.34279   0.97167   0.34251   1.000
    N4      N    0.65720   0.65757   0.02824   1.000
    N5      N    0.34277   0.34237   0.97178   1.000
    N6      N    0.34256   0.34268   0.34297   1.000
    N7      N    0.66261   0.02820   0.64677   1.000
    Zr8     Zr   0.99998   0.49998   0.49996   1.000
    O9      O    0.98618   0.43770   0.43783   1.000
    O10     O    0.13810   0.43764   0.43777   1.000
    O11     O    0.01379   0.56226   0.56215   1.000
    O12     O    0.86188   0.56233   0.56217   1.000
    Zr13    Zr   0.49999   0.99999   0.50001   1.000
    O14     O    0.43760   0.13816   0.43785   1.000
    O15     O    0.56238   0.86181   0.56216   1.000
    O16     O    0.43773   0.98641   0.43758   1.000
    O17     O    0.56361   0.01354   0.55974   1.000
    Zr18    Zr   0.99999   0.99998   0.49997   1.000
    O19     O    0.98614   0.13819   0.43785   1.000
    O20     O    0.13816   0.98645   0.43753   1.000
    O21     O    0.86318   0.01348   0.55974   1.000
    O22     O    0.01384   0.86177   0.56212   1.000
    Zr23    Zr   0.50000   0.49997   0.99999   1.000
    O24     O    0.43774   0.43752   0.98640   1.000
    O25     O    0.56239   0.56228   0.86173   1.000
    O26     O    0.43760   0.43767   0.13826   1.000
    O27     O    0.56225   0.56241   0.01359   1.000
    Zr28    Zr   0.99998   0.50002   0.00713   1.000
    O29     O    0.86181   0.56252   0.01711   1.000
    O30     O    0.13816   0.43749   0.99003   1.000
    O31     O    0.98620   0.43773   0.14182   1.000
    O32     O    0.01376   0.56228   0.86528   1.000
    Zr33    Zr   0.50756   0.00191   0.96955   1.000
    O34     O    0.44148   0.13899   0.97118   1.000
    O35     O    0.56605   0.86289   0.99838   1.000
    O36     O    0.44151   0.98724   0.12289   1.000
    O37     O    0.57561   0.01526   0.82692   1.000
loop_
    _geom_bond_atom_site_label_1
    _geom_bond_atom_site_label_2
    _geom_bond_distance
    _geom_bond_site_symmetry_2
    _ccdc_geom_bond_type
    Zr8    O9        2.18112      .   S
    N1     O9        3.25204      .   S
    Zr8    O10       2.18300  1_655   S
    N6     O10       3.25436      .   S
    Zr8    O11       2.18192  1_655   S
    N2     O11       3.25282      .   S
    Zr8    O12       2.18306      .   S
    N0     O12       3.25450      .   S
    Zr13   O14       2.18238  1_565   S
    N6     O14       3.25334      .   S
    Zr13   O15       2.18245      .   S
    N0     O15       3.25344      .   S
    Zr13   O16       2.18111      .   S
    N3     O16       3.25193      .   S
    Zr13   O17       2.15948  1_565   S
    N7     O17       3.18821      .   S
    Zr18   O19       2.18136  1_565   S
    N1     O19       3.25190      .   S
    Zr18   O20       2.18157  1_655   S
    N3     O20       3.25252      .   S
    Zr18   O21       2.16001  1_565   S
    N7     O21       3.18880      .   S
    Zr18   O22       2.18133  1_655   S
    N2     O22       3.25186      .   S
    Zr23   O24       2.18135      .   S
    N5     O24       3.25220      .   S
    Zr23   O25       2.18310      .   S
    N0     O25       3.25444      .   S
    Zr23   O26       2.18316  1_556   S
    N6     O26       3.25451      .   S
    Zr23   O27       2.18141  1_556   S
    N4     O27       3.25220      .   S
    Zr28   O29       2.19689      .   S
    N4     O29       3.26927      .   S
    Zr28   O30       2.16937  1_654   S
    N5     O30       3.23876      .   S
    Zr28   O31       2.12450      .   S
    N1     O31       3.19656      .   S
    Zr28   O32       2.24021  1_654   S
    N2     O32       3.31136      .   S
    Zr33   O34       2.23990      .   S
    N5     O34       3.31253      .   S
    Zr33   O35       2.15150  1_545   S
    N4     O35       3.21118  1_554   S
    Zr33   O36       2.42476  1_546   S
    N3     O36       3.49524      .   S
    Zr33   O37       2.25703      .   S
    N7     O37       2.86665      .   S
