# CIF file generated by openbabel 2.4.90, see http://openbabel.sf.net
data_I
_chemical_name_common ''
_cell_length_a 18.743
_cell_length_b 18.765
_cell_length_c 18.762
_cell_angle_alpha 59.98
_cell_angle_beta 60.083
_cell_angle_gamma 60.109
_space_group_name_H-M_alt 'P 1'
_space_group_name_Hall 'P 1'
loop_
    _symmetry_equiv_pos_as_xyz
    x,y,z
loop_
    _atom_site_label
    _atom_site_type_symbol
    _atom_site_fract_x
    _atom_site_fract_y
    _atom_site_fract_z
    _atom_site_occupancy
    Zr0     Zr   0.56537   0.00017   0.43460   1.000
    Zr1     Zr   0.00023   0.56534   0.99996   1.000
    Zr2     Zr   0.43460   0.99982   0.56541   1.000
    Zr3     Zr   0.99971   0.43470   0.10000   1.000
    Zr4     Zr   0.56537   0.43465   0.00013   1.000
    Zr5     Zr   0.99977   0.00006   0.43460   1.000
    Zr6     Zr   0.43461   0.56530   0.99980   1.000
    Zr7     Zr   0.00020   0.99991   0.56538   1.000
    Zr8     Zr   0.56539   0.00009   0.80000   1.000
    Zr9     Zr   0.99991   0.43459   0.56500   1.000
    Zr10    Zr   0.43452   0.99988   0.99996   1.000
    Zr11    Zr   0.00004   0.56538   0.43451   1.000
    Zr12    Zr   0.61394   0.02904   0.74331   1.000
    Zr13    Zr   0.57001   0.56977   0.83672   1.000
    Zr14    Zr   0.56968   0.56998   0.02361   1.000
    Zr15    Zr   0.83695   0.02311   0.57000   1.000
    Zr16    Zr   0.02404   0.83674   0.56946   1.000
    Zr17    Zr   0.56979   0.83693   0.02358   1.000
    Zr18    Zr   0.56972   0.02392   0.83683   1.000
    Zr19    Zr   0.83688   0.56996   0.56960   1.000
    Zr20    Zr   0.02389   0.56976   0.56960   1.000
    Zr21    Zr   0.56973   0.02339   0.57008   1.000
    Zr22    Zr   0.56998   0.83677   0.56948   1.000
    Zr23    Zr   0.83687   0.57037   0.02334   1.000
    Zr24    Zr   0.02372   0.56981   0.83672   1.000
    Zr25    Zr   0.42996   0.43018   0.16327   1.000
    Zr26    Zr   0.43035   0.42991   0.97640   1.000
    Zr27    Zr   0.97595   0.16322   0.43052   1.000
    Zr28    Zr   0.16304   0.97684   0.42973   1.000
    Zr29    Zr   0.16309   0.42966   0.97669   1.000
    Zr30    Zr   0.97624   0.43020   0.16300   1.000
    Zr31    Zr   0.42998   0.16320   0.43056   1.000
    Zr32    Zr   0.43028   0.97659   0.42990   1.000
    Zr33    Zr   0.97608   0.43018   0.43045   1.000
    Zr34    Zr   0.16310   0.43002   0.43030   1.000
    Zr35    Zr   0.43011   0.16302   0.97643   1.000
    Zr36    Zr   0.43025   0.97602   0.16318   1.000
    Zr37    Zr   0.61394   0.49232   0.87335   1.000
    Zr38    Zr   0.49215   0.61382   0.02060   1.000
    Zr39    Zr   0.87362   0.02011   0.61422   1.000
    Zr40    Zr   0.02083   0.87332   0.49200   1.000
    Zr41    Zr   0.61378   0.87349   0.02066   1.000
    Zr42    Zr   0.49220   0.02087   0.87325   1.000
    Zr43    Zr   0.87340   0.61390   0.49210   1.000
    Zr44    Zr   0.02085   0.49225   0.61366   1.000
    Zr45    Zr   0.61369   0.02056   0.49257   1.000
    Zr46    Zr   0.49250   0.87309   0.61345   1.000
    Zr47    Zr   0.87314   0.49291   0.02046   1.000
    Zr48    Zr   0.02092   0.61373   0.87318   1.000
    Zr49    Zr   0.50746   0.38632   0.12688   1.000
    Zr50    Zr   0.38641   0.50739   0.97921   1.000
    Zr51    Zr   0.97881   0.12678   0.38655   1.000
    Zr52    Zr   0.12674   0.97978   0.50720   1.000
    Zr53    Zr   0.12637   0.38581   0.97965   1.000
    Zr54    Zr   0.97946   0.50765   0.12672   1.000
    Zr55    Zr   0.38604   0.12656   0.50805   1.000
    Zr56    Zr   0.50779   0.97963   0.38598   1.000
    Zr57    Zr   0.97900   0.38622   0.50802   1.000
    Zr58    Zr   0.12669   0.50754   0.38625   1.000
    Zr59    Zr   0.50764   0.12666   0.97942   1.000
    Zr60    Zr   0.38624   0.97891   0.12660   1.000
    Zr61    Zr   0.38603   0.50763   0.12664   1.000
    Zr62    Zr   0.50787   0.38608   0.97939   1.000
    Zr63    Zr   0.12637   0.97986   0.38580   1.000
    Zr64    Zr   0.97918   0.12664   0.50790   1.000
    Zr65    Zr   0.38610   0.12645   0.97939   1.000
    Zr66    Zr   0.50776   0.97911   0.12675   1.000
    Zr67    Zr   0.12658   0.38609   0.50780   1.000
    Zr68    Zr   0.97910   0.50770   0.38639   1.000
    Zr69    Zr   0.38630   0.97944   0.50740   1.000
    Zr70    Zr   0.50746   0.12688   0.38659   1.000
    Zr71    Zr   0.12685   0.50713   0.97955   1.000
    Zr72    Zr   0.97902   0.38630   0.12683   1.000
    Zr73    Zr   0.49252   0.61365   0.87311   1.000
    Zr74    Zr   0.61362   0.49252   0.02076   1.000
    Zr75    Zr   0.02117   0.87319   0.61343   1.000
    Zr76    Zr   0.87326   0.02016   0.49283   1.000
    Zr77    Zr   0.87357   0.61424   0.02038   1.000
    Zr78    Zr   0.02051   0.49236   0.87330   1.000
    Zr79    Zr   0.61393   0.87342   0.49199   1.000
    Zr80    Zr   0.49221   0.02033   0.61401   1.000
    Zr81    Zr   0.02099   0.61371   0.49202   1.000
    Zr82    Zr   0.87329   0.49244   0.61372   1.000
    Zr83    Zr   0.49228   0.87329   0.02055   1.000
    Zr84    Zr   0.61373   0.02100   0.87337   1.000
    O85     O    0.58950   0.46358   0.01045   1.000
    O86     O    0.53642   0.41048   0.06350   1.000
    O87     O    0.58966   0.46348   0.93674   1.000
    O88     O    0.53662   0.41036   0.98976   1.000
    O89     O    0.85522   0.59230   0.02186   1.000
    O90     O    0.93690   0.58979   0.01017   1.000
    O91     O    0.85500   0.53164   0.02190   1.000
    O92     O    0.53103   0.85511   0.02207   1.000
    O93     O    0.46340   0.93658   0.01026   1.000
    O94     O    0.53091   0.59190   0.02211   1.000
    O95     O    0.46338   0.58956   0.01020   1.000
    O96     O    0.59178   0.85521   0.02212   1.000
    O97     O    0.59165   0.53125   0.02219   1.000
    O98     O    0.40824   0.97747   0.14489   1.000
    O99     O    0.41038   0.98940   0.06328   1.000
    O100    O    0.40800   0.46891   0.14496   1.000
    O101    O    0.41032   0.53647   0.06322   1.000
    O102    O    0.97785   0.46892   0.14486   1.000
    O103    O    0.46900   0.97757   0.14497   1.000
    O104    O    0.97763   0.40825   0.14492   1.000
    O105    O    0.98936   0.41050   0.11342   1.000
    O106    O    0.46871   0.40825   0.14507   1.000
    O107    O    0.98797   0.43245   0.13150   1.000
    O108    O    0.14470   0.97835   0.40777   1.000
    O109    O    0.06307   0.98996   0.41020   1.000
    O110    O    0.46903   0.97811   0.40794   1.000
    O111    O    0.53658   0.98990   0.41029   1.000
    O112    O    0.14489   0.46878   0.40827   1.000
    O113    O    0.06337   0.53646   0.41038   1.000
    O114    O    0.97759   0.46894   0.40842   1.000
    O115    O    0.98957   0.53654   0.41045   1.000
    O116    O    0.97738   0.14500   0.40854   1.000
    O117    O    0.98929   0.06342   0.41058   1.000
    O118    O    0.46872   0.14504   0.40858   1.000
    O119    O    0.53641   0.06353   0.41060   1.000
    O120    O    0.14489   0.97831   0.46847   1.000
    O121    O    0.40829   0.97801   0.46865   1.000
    O122    O    0.14484   0.40806   0.46905   1.000
    O123    O    0.97754   0.40820   0.46924   1.000
    O124    O    0.97756   0.14493   0.46921   1.000
    O125    O    0.40801   0.14488   0.46930   1.000
    O126    O    0.01052   0.58955   0.46327   1.000
    O127    O    0.93672   0.58964   0.46330   1.000
    O128    O    0.58965   0.93680   0.46330   1.000
    O129    O    0.58953   0.01037   0.46359   1.000
    O130    O    0.01030   0.93669   0.46330   1.000
    O131    O    0.93652   0.01011   0.46372   1.000
    O132    O    0.59196   0.85510   0.53073   1.000
    O133    O    0.02244   0.85503   0.53073   1.000
    O134    O    0.02244   0.59174   0.53081   1.000
    O135    O    0.85514   0.59193   0.53085   1.000
    O136    O    0.59171   0.02198   0.53133   1.000
    O137    O    0.85511   0.02164   0.53142   1.000
    O138    O    0.06347   0.98985   0.53629   1.000
    O139    O    0.41045   0.98963   0.53641   1.000
    O140    O    0.06325   0.41034   0.53640   1.000
    O141    O    0.98969   0.06328   0.53664   1.000
    O142    O    0.98945   0.41040   0.53651   1.000
    O143    O    0.41032   0.06319   0.53673   1.000
    O144    O    0.01038   0.46342   0.58933   1.000
    O145    O    0.93660   0.46351   0.58936   1.000
    O146    O    0.01068   0.93655   0.58941   1.000
    O147    O    0.93691   0.01001   0.58980   1.000
    O148    O    0.46355   0.93645   0.58943   1.000
    O149    O    0.46341   0.01007   0.58971   1.000
    O150    O    0.02261   0.85497   0.59144   1.000
    O151    O    0.53124   0.85493   0.59147   1.000
    O152    O    0.85509   0.53120   0.59166   1.000
    O153    O    0.02237   0.53100   0.59163   1.000
    O154    O    0.85529   0.02161   0.59211   1.000
    O155    O    0.53097   0.02186   0.59205   1.000
    O156    O    0.58966   0.01457   0.77165   1.000
    O157    O    0.53127   0.59171   0.85492   1.000
    O158    O    0.59198   0.53104   0.85504   1.000
    O159    O    0.02232   0.59177   0.85495   1.000
    O160    O    0.02212   0.53109   0.85501   1.000
    O161    O    0.53096   0.02239   0.85504   1.000
    O162    O    0.59173   0.02246   0.85510   1.000
    O163    O    0.56756   0.01201   0.81841   1.000
    O164    O    0.46357   0.58948   0.93646   1.000
    O165    O    0.01058   0.58954   0.93657   1.000
    O166    O    0.40838   0.46865   0.97781   1.000
    O167    O    0.46911   0.40799   0.97790   1.000
    O168    O    0.40811   0.14473   0.97791   1.000
    O169    O    0.46888   0.14484   0.97793   1.000
    O170    O    0.14497   0.46840   0.97812   1.000
    O171    O    0.14473   0.40774   0.97817   1.000
    O172    O    0.41051   0.53635   0.98951   1.000
    O173    O    0.41031   0.06317   0.98968   1.000
    O174    O    0.06354   0.53624   0.98976   1.000
    O175    O    0.52880   0.01048   0.83663   1.000
    O176    O    0.46336   0.01037   0.93661   1.000
    O177    O    0.98985   0.53650   0.06334   1.000
    O178    O    0.98958   0.47117   0.11336   1.000
    O179    O    0.58956   0.01054   0.83668   1.000
    O180    O    0.49999   1.00000   0.50001   1.000
    O181    O    0.49999   0.49998   0.99997   1.000
    O182    O    0.99998   0.99999   0.49999   1.000
    O183    O    0.99998   0.49998   0.49975   1.000
    N184    N    0.65742   0.65728   0.65702   1.000
    O185    O    0.72377   0.62467   0.62438   1.000
    O186    O    0.62478   0.62459   0.72346   1.000
    O187    O    0.62476   0.72363   0.62431   1.000
    N188    N    0.97125   0.34278   0.34304   1.000
    O189    O    0.97242   0.37544   0.27651   1.000
    O190    O    0.97237   0.37542   0.37569   1.000
    O191    O    0.97228   0.27641   0.37573   1.000
    N192    N    0.02870   0.65719   0.65697   1.000
    O193    O    0.02769   0.72356   0.62427   1.000
    O194    O    0.02753   0.62455   0.72343   1.000
    O195    O    0.02759   0.62454   0.62434   1.000
    N196    N    0.34279   0.97167   0.34251   1.000
    O197    O    0.37547   0.97282   0.37515   1.000
    O198    O    0.27633   0.97292   0.37508   1.000
    O199    O    0.37546   0.97257   0.27622   1.000
    N200    N    0.65720   0.65757   0.02824   1.000
    O201    O    0.72363   0.62501   0.02708   1.000
    O202    O    0.62455   0.72387   0.02721   1.000
    O203    O    0.62450   0.62485   0.02720   1.000
    N204    N    0.34277   0.34237   0.97178   1.000
    O205    O    0.37549   0.37507   0.97282   1.000
    O206    O    0.27633   0.37496   0.97294   1.000
    O207    O    0.37539   0.27607   0.97281   1.000
    N208    N    0.34256   0.34268   0.34297   1.000
    O209    O    0.37521   0.27633   0.37570   1.000
    O210    O    0.37520   0.37537   0.27653   1.000
    O211    O    0.27621   0.37530   0.37559   1.000
    N212    N    0.66261   0.02820   0.64677   1.000
    O213    O    0.65982   0.02859   0.68430   1.000
    O214    O    0.72637   0.02699   0.61950   1.000
    O215    O    0.62749   0.02862   0.68426   1.000
    O216    O    0.62723   0.02710   0.61948   1.000
loop_
    _geom_bond_atom_site_label_1
    _geom_bond_atom_site_label_2
    _geom_bond_distance
    _geom_bond_site_symmetry_2
    _ccdc_geom_bond_type
    Zr4    O85       0.98686      .   S
    Zr74   O85       0.98686      .   S
    Zr4    O86       0.98797      .   S
    Zr49   O86       0.98797      .   S
    Zr4    O87       0.98793  1_554   S
    Zr37   O87       0.98793      .   S
    Zr4    O88       0.98694  1_554   S
    Zr62   O88       0.98694      .   S
    Zr77   O89       0.63924      .   S
    Zr23   O89       0.63924      .   S
    Zr77   O90       0.98718      .   S
    Zr1    O90       0.98718  1_456   S
    Zr47   O91       0.63934      .   S
    Zr23   O91       0.63934      .   S
    Zr83   O92       0.63934      .   S
    Zr17   O92       0.63934      .   S
    Zr83   O93       0.98741      .   S
    Zr10   O93       0.98741  1_556   S
    Zr38   O94       0.63938      .   S
    Zr14   O94       0.63938      .   S
    Zr38   O95       0.98724      .   S
    Zr6    O95       0.98724  1_556   S
    Zr41   O96       0.63930      .   S
    Zr17   O96       0.63930      .   S
    Zr74   O97       0.63928      .   S
    Zr14   O97       0.63928      .   S
    Zr60   O98       0.63975      .   S
    Zr36   O98       0.63975      .   S
    Zr60   O99       0.98665      .   S
    Zr10   O99       0.98665  1_556   S
    Zr61   O100      0.63930      .   S
    Zr25   O100      0.63930      .   S
    Zr61   O101      0.98835      .   S
    Zr6    O101      0.98835  1_556   S
    Zr54   O102      0.63946      .   S
    Zr30   O102      0.63946      .   S
    Zr66   O103      0.63931      .   S
    Zr36   O103      0.63931      .   S
    Zr72   O104      0.63700      .   S
    Zr30   O104      0.63700      .   S
    Zr72   O105      0.48148      .   S
    Zr3    O105      0.48148      .   S
    Zr49   O106      0.63933      .   S
    Zr25   O106      0.63933      .   S
    Zr30   O107      0.50406      .   S
    Zr3    O107      0.50406      .   S
    Zr63   O108      0.63927      .   S
    Zr28   O108      0.63927      .   S
    Zr63   O109      0.98689      .   S
    Zr5    O109      0.98689  1_645   S
    Zr56   O110      0.63928      .   S
    Zr32   O110      0.63928      .   S
    Zr56   O111      0.98663      .   S
    Zr0    O111      0.98663  1_545   S
    Zr58   O112      0.63933      .   S
    Zr34   O112      0.63933      .   S
    Zr58   O113      0.98790      .   S
    Zr11   O113      0.98790      .   S
    Zr68   O114      0.63930      .   S
    Zr33   O114      0.63930      .   S
    Zr68   O115      0.98685      .   S
    Zr11   O115      0.98685  1_455   S
    Zr51   O116      0.63929      .   S
    Zr27   O116      0.63929      .   S
    Zr51   O117      0.98721      .   S
    Zr5    O117      0.98721      .   S
    Zr70   O118      0.63935      .   S
    Zr31   O118      0.63935      .   S
    Zr70   O119      0.98778      .   S
    Zr0    O119      0.98778      .   S
    Zr28   O120      0.63934      .   S
    Zr52   O120      0.63934      .   S
    Zr32   O121      0.63932      .   S
    Zr69   O121      0.63932      .   S
    Zr34   O122      0.63885      .   S
    Zr67   O122      0.63885      .   S
    Zr33   O123      0.63928      .   S
    Zr57   O123      0.63928      .   S
    Zr27   O124      0.63870      .   S
    Zr64   O124      0.63870      .   S
    Zr31   O125      0.63926      .   S
    Zr55   O125      0.63926      .   S
    Zr11   O126      0.98714      .   S
    Zr81   O126      0.98714      .   S
    Zr11   O127      0.98780  1_455   S
    Zr43   O127      0.98780      .   S
    Zr0    O128      0.98770  1_545   S
    Zr79   O128      0.98770      .   S
    Zr0    O129      0.98664      .   S
    Zr45   O129      0.98664      .   S
    Zr5    O130      0.98715  1_645   S
    Zr40   O130      0.98715      .   S
    Zr5    O131      0.98681      .   S
    Zr76   O131      0.98681      .   S
    Zr79   O132      0.63930      .   S
    Zr22   O132      0.63930      .   S
    Zr40   O133      0.63932      .   S
    Zr16   O133      0.63932      .   S
    Zr81   O134      0.63930      .   S
    Zr20   O134      0.63930      .   S
    Zr43   O135      0.63890      .   S
    Zr19   O135      0.63890      .   S
    Zr45   O136      0.63935      .   S
    Zr21   O136      0.63935      .   S
    Zr76   O137      0.63686      .   S
    Zr15   O137      0.63686      .   S
    Zr52   O138      0.98696      .   S
    Zr7    O138      0.98696      .   S
    Zr69   O139      0.98673      .   S
    Zr2    O139      0.98673      .   S
    Zr67   O140      0.98726      .   S
    Zr9    O140      0.98726  1_655   S
    Zr64   O141      0.98706      .   S
    Zr7    O141      0.98706  1_465   S
    Zr57   O142      0.98287      .   S
    Zr9    O142      0.98287      .   S
    Zr55   O143      0.98760      .   S
    Zr2    O143      0.98760  1_565   S
    Zr9    O144      0.99087  1_655   S
    Zr44   O144      0.99087      .   S
    Zr9    O145      0.98838      .   S
    Zr82   O145      0.98838      .   S
    Zr7    O146      0.98727      .   S
    Zr75   O146      0.98727      .   S
    Zr7    O147      0.98671  1_465   S
    Zr39   O147      0.98671      .   S
    Zr2    O148      0.98797      .   S
    Zr46   O148      0.98797      .   S
    Zr2    O149      0.98659  1_565   S
    Zr80   O149      0.98659      .   S
    Zr16   O150      0.63927      .   S
    Zr75   O150      0.63927      .   S
    Zr22   O151      0.63934      .   S
    Zr46   O151      0.63934      .   S
    Zr19   O152      0.63958      .   S
    Zr82   O152      0.63958      .   S
    Zr20   O153      0.63929      .   S
    Zr44   O153      0.63929      .   S
    Zr15   O154      0.64175      .   S
    Zr39   O154      0.64175      .   S
    Zr21   O155      0.63928      .   S
    Zr80   O155      0.63928      .   S
    Zr12   O156      0.54856      .   S
    Zr8    O156      0.54856      .   S
    Zr13   O157      0.63934      .   S
    Zr73   O157      0.63934      .   S
    Zr13   O158      0.63928      .   S
    Zr37   O158      0.63928      .   S
    Zr24   O159      0.63934      .   S
    Zr48   O159      0.63934      .   S
    Zr24   O160      0.63929      .   S
    Zr78   O160      0.63929      .   S
    Zr18   O161      0.63931      .   S
    Zr42   O161      0.63931      .   S
    Zr18   O162      0.63930      .   S
    Zr84   O162      0.63930      .   S
    Zr18   O163      0.52094      .   S
    Zr8    O163      0.52094      .   S
    Zr73   O164      0.98759      .   S
    Zr6    O164      0.98759      .   S
    Zr48   O165      0.98775      .   S
    Zr1    O165      0.98775      .   S
    Zr26   O166      0.63929      .   S
    Zr50   O166      0.63929      .   S
    Zr26   O167      0.63928      .   S
    Zr62   O167      0.63928      .   S
    Zr35   O168      0.63926      .   S
    Zr65   O168      0.63926      .   S
    Zr35   O169      0.63934      .   S
    Zr59   O169      0.63934      .   S
    Zr29   O170      0.63933      .   S
    Zr71   O170      0.63933      .   S
    Zr29   O171      0.63926      .   S
    Zr53   O171      0.63926      .   S
    Zr50   O172      0.98653      .   S
    Zr6    O172      0.98653      .   S
    Zr65   O173      0.98711      .   S
    Zr10   O173      0.98711  1_565   S
    Zr71   O174      0.98744      .   S
    Zr1    O174      0.98744      .   S
    Zr42   O175      0.71502      .   S
    Zr8    O175      0.71502      .   S
    Zr42   O176      0.98735      .   S
    Zr10   O176      0.98735  1_565   S
    Zr54   O177      0.98742      .   S
    Zr1    O177      0.98742  1_456   S
    Zr54   O178      0.74973      .   S
    Zr3    O178      0.74973      .   S
    Zr84   O179      1.11903      .   S
    Zr8    O179      1.11903      .   S
    Zr0    O180      1.22787  1_545   S
    Zr2    O180      1.22787      .   S
    Zr4    O181      1.22772  1_554   S
    Zr6    O181      1.22772      .   S
    Zr5    O182      1.22816  1_545   S
    Zr7    O182      1.22816  1_455   S
    Zr9    O183      1.22527      .   S
    Zr11   O183      1.22527  1_455   S
    N184   O185      1.07370      .   S
    Zr19   O185      1.82151      .   S
    N184   O186      1.07361      .   S
    Zr13   O186      1.82118      .   S
    N184   O187      1.07339      .   S
    Zr22   O187      1.82081      .   S
    N188   O189      1.07461      .   S
    Zr30   O189      1.82439      .   S
    N188   O190      1.07330      .   S
    Zr33   O190      1.82061      .   S
    N188   O191      1.07300      .   S
    Zr27   O191      1.82014      .   S
    N192   O193      1.07301      .   S
    Zr16   O193      1.82014      .   S
    N192   O194      1.07343      .   S
    Zr24   O194      1.82079      .   S
    N192   O195      1.07326      .   S
    Zr20   O195      1.82053      .   S
    N196   O197      1.07307      .   S
    Zr32   O197      1.82012      .   S
    N196   O198      1.07310      .   S
    Zr28   O198      1.82024      .   S
    N196   O199      1.07310      .   S
    Zr36   O199      1.82025      .   S
    N200   O201      1.07344      .   S
    Zr23   O201      1.82082      .   S
    N200   O202      1.07317      .   S
    Zr17   O202      1.82040      .   S
    N200   O203      1.07314      .   S
    Zr14   O203      1.82033      .   S
    N204   O205      1.07320      .   S
    Zr26   O205      1.82039      .   S
    N204   O206      1.07342      .   S
    Zr29   O206      1.82078      .   S
    N204   O207      1.07314      .   S
    Zr35   O207      1.82041      .   S
    N208   O209      1.07338      .   S
    Zr31   O209      1.82083      .   S
    N208   O210      1.07362      .   S
    Zr25   O210      1.82117      .   S
    N208   O211      1.07362      .   S
    Zr34   O211      1.82125      .   S
    N212   O213      0.68318      .   S
    Zr12   O213      1.00885      .   S
    N212   O214      1.03202      .   S
    Zr15   O214      1.77792      .   S
    N212   O215      0.68311      .   S
    Zr12   O215      1.00894      .   S
    N212   O216      1.03209      .   S
    Zr21   O216      1.77791      .   S
