# CIF file generated by openbabel 2.4.90, see http://openbabel.sf.net
data_I
_chemical_name_common ''
_cell_length_a 6.3285
_cell_length_b 13.6015
_cell_length_c 14.666
_cell_angle_alpha 90.018
_cell_angle_beta 90.088
_cell_angle_gamma 95.761
_space_group_name_H-M_alt 'P 1'
_space_group_name_Hall 'P 1'
loop_
    _symmetry_equiv_pos_as_xyz
    x,y,z
loop_
    _atom_site_label
    _atom_site_type_symbol
    _atom_site_fract_x
    _atom_site_fract_y
    _atom_site_fract_z
    _atom_site_occupancy
    Ca0     Ca   0.27127   0.05138   0.55437   1.000
    Ca1     Ca   0.77081   0.55094   0.94481   1.000
    Ca2     Ca   0.72093   0.94932   0.44457   1.000
    H3      H    0.79937   0.26263   0.25218   1.000
    H4      H    0.16226   0.12696   0.29912   1.000
    H5      H    0.04278   0.23510   0.17524   1.000
    H6      H    0.69305   0.23770   0.75210   1.000
    H7      H    0.33010   0.37391   0.79911   1.000
    H8      H    0.44910   0.26587   0.67522   1.000
    H9      H    0.19226   0.73787   0.74714   1.000
    H10     H    0.82984   0.87288   0.70024   1.000
    H11     H    0.94865   0.76513   0.82465   1.000
    H12     H    0.29883   0.76270   0.24748   1.000
    H13     H    0.66190   0.62642   0.20027   1.000
    H14     H    0.54263   0.73442   0.32417   1.000
    C15     C    0.54912   0.31273   0.17038   1.000
    C16     C    0.57889   0.11879   0.35465   1.000
    C17     C    0.63041   0.25437   0.23736   1.000
    C18     C    0.27683   0.17880   0.26393   1.000
    C19     C    0.49315   0.18621   0.28543   1.000
    C20     C    0.69400   0.38429   0.11414   1.000
    C21     C    0.20896   0.23920   0.19529   1.000
    C22     C    0.94293   0.18781   0.67030   1.000
    C23     C    0.91335   0.38179   0.85464   1.000
    C24     C    0.86190   0.24613   0.73730   1.000
    C25     C    0.21538   0.32198   0.76393   1.000
    C26     C    0.99919   0.31446   0.78540   1.000
    C27     C    0.79778   0.11615   0.61402   1.000
    C28     C    0.28302   0.26161   0.69525   1.000
    C29     C    0.44210   0.68785   0.82932   1.000
    C30     C    0.41481   0.88100   0.64382   1.000
    C31     C    0.36115   0.74611   0.76213   1.000
    Ca32    Ca   0.22051   0.44951   0.05484   1.000
    C33     C    0.71507   0.82133   0.73563   1.000
    C34     C    0.49883   0.81398   0.71392   1.000
    C35     C    0.29719   0.61628   0.88561   1.000
    C36     C    0.78254   0.76113   0.80450   1.000
    C37     C    0.04876   0.81259   0.32917   1.000
    C38     C    0.07862   0.61859   0.14493   1.000
    C39     C    0.12994   0.75428   0.26221   1.000
    C40     C    0.77648   0.67839   0.23549   1.000
    C41     C    0.99271   0.68599   0.21405   1.000
    C42     C    0.19381   0.88425   0.38549   1.000
    C43     C    0.70872   0.73873   0.30416   1.000
    N44     N    0.33969   0.30619   0.14977   1.000
    N45     N    0.15220   0.19451   0.64966   1.000
    N46     N    0.65146   0.69431   0.85006   1.000
    N47     N    0.83945   0.80586   0.34975   1.000
    O48     O    0.60197   0.43884   0.05801   1.000
    O49     O    0.47085   0.09883   0.42684   1.000
    O50     O    0.75063   0.08266   0.33609   1.000
    O51     O    0.89109   0.38396   0.12512   1.000
    O52     O    0.88956   0.06183   0.55774   1.000
    O53     O    0.02176   0.40211   0.92681   1.000
    O54     O    0.74085   0.41743   0.83616   1.000
    O55     O    0.60072   0.11623   0.62515   1.000
    O56     O    0.38927   0.56182   0.94179   1.000
    O57     O    0.52642   0.90106   0.57268   1.000
    O58     O    0.24156   0.91669   0.66064   1.000
    O59     O    0.10009   0.61645   0.87459   1.000
    O60     O    0.10204   0.93892   0.44149   1.000
    O61     O    0.97091   0.59858   0.07250   1.000
    O62     O    0.25045   0.58257   0.16378   1.000
    O63     O    0.39085   0.88388   0.37468   1.000
loop_
    _geom_bond_atom_site_label_1
    _geom_bond_atom_site_label_2
    _geom_bond_distance
    _geom_bond_site_symmetry_2
    _ccdc_geom_bond_type
    Ca32   O62       2.40674      .   S
    Ca32   O53       2.31355  1_554   S
    O48    C20       1.28571      .   S
    O61    C38       1.27574  1_655   S
    O61    Ca1       2.31470  1_554   S
    C20    O51       1.25782      .   S
    C20    C15       1.51399      .   S
    C38    O62       1.26692      .   S
    C38    C41       1.50490  1_455   S
    N44    C15       1.35314      .   S
    N44    C21       1.34581      .   S
    C15    C17       1.39303      .   S
    H5     C21       1.08759      .   S
    C21    C18       1.39387      .   S
    H13    C40       1.08990      .   S
    C41    C40       1.39821      .   S
    C41    C39       1.39704  1_655   S
    C40    C43       1.39400      .   S
    C17    H3        1.08552      .   S
    C17    C19       1.39705      .   S
    H12    C39       1.08550      .   S
    C39    C37       1.39292      .   S
    C18    C19       1.39812      .   S
    C18    H4        1.08988      .   S
    C19    C16       1.50489      .   S
    C43    H14       1.08765      .   S
    C43    N47       1.34587      .   S
    C37    N47       1.35315  1_455   S
    C37    C42       1.51403      .   S
    O50    C16       1.26680      .   S
    O50    Ca2       2.40621  1_545   S
    C16    O49       1.27563      .   S
    O63    C42       1.25777      .   S
    C42    O60       1.28560      .   S
    O49    Ca0       2.31387      .   S
    Ca2    O57       2.30696      .   S
    Ca0    O58       2.39880  1_545   S
    O52    C27       1.28524      .   S
    O57    C30       1.27503      .   S
    C27    O55       1.25809      .   S
    C27    C22       1.51414      .   S
    C30    O58       1.26735      .   S
    C30    C34       1.50565      .   S
    N45    C22       1.35314  1_455   S
    N45    C28       1.34592      .   S
    C22    C24       1.39296      .   S
    H8     C28       1.08767      .   S
    C28    C25       1.39406      .   S
    H10    C33       1.08985      .   S
    C34    C33       1.39831      .   S
    C34    C31       1.39720      .   S
    C33    C36       1.39364      .   S
    C24    H6        1.08548      .   S
    C24    C26       1.39710      .   S
    H9     C31       1.08560      .   S
    C31    C29       1.39354      .   S
    C25    C26       1.39813  1_455   S
    C25    H7        1.08988      .   S
    C26    C23       1.50531      .   S
    C36    H11       1.08764      .   S
    C36    N46       1.34580      .   S
    C29    N46       1.35317      .   S
    C29    C35       1.51438      .   S
    O54    C23       1.26701      .   S
    O54    Ca1       2.40846      .   S
    C23    O53       1.27563  1_655   S
    O59    C35       1.25777      .   S
    C35    O56       1.28567      .   S
    O48    Ca32      2.43325      .   S
    O48    Ca1       2.42957  1_554   S
    O49    Ca2       2.71158  1_545   S
    O51    Ca32      2.41607  1_655   S
    O52    Ca0       2.43462  1_655   S
    O52    Ca2       2.42909  1_545   S
    O53    Ca1       2.70844  1_455   S
    O55    Ca0       2.41371      .   S
    O56    Ca32      2.42956  1_556   S
    O56    Ca1       2.43420      .   S
    O57    Ca0       2.74250  1_565   S
    O59    Ca1       2.41480  1_455   S
    O60    Ca0       2.42721  1_565   S
    O60    Ca2       2.43059  1_455   S
    O61    Ca32      2.70506  1_655   S
    O63    Ca2       2.41369      .   S
