# CIF file generated by openbabel 2.4.90, see http://openbabel.sf.net
data_I
_chemical_name_common ''
_cell_length_a 6.3285
_cell_length_b 13.6015
_cell_length_c 14.666
_cell_angle_alpha 90.018
_cell_angle_beta 90.088
_cell_angle_gamma 95.761
_space_group_name_H-M_alt 'P 1'
_space_group_name_Hall 'P 1'
loop_
    _symmetry_equiv_pos_as_xyz
    x,y,z
loop_
    _atom_site_label
    _atom_site_type_symbol
    _atom_site_fract_x
    _atom_site_fract_y
    _atom_site_fract_z
    _atom_site_occupancy
    Ca0     Ca   0.27127   0.05138   0.55437   1.000
    Ca1     Ca   0.77081   0.55094   0.94481   1.000
    Ca2     Ca   0.72093   0.94932   0.44457   1.000
    C3      C    0.57889   0.11879   0.35465   1.000
    C4      C    0.69400   0.38429   0.11414   1.000
    C5      C    0.91335   0.38179   0.85464   1.000
    C6      C    0.79778   0.11615   0.61402   1.000
    C7      C    0.41481   0.88100   0.64382   1.000
    Ca8     Ca   0.22051   0.44951   0.05484   1.000
    C9      C    0.29719   0.61628   0.88561   1.000
    C10     C    0.07862   0.61859   0.14493   1.000
    C11     C    0.19381   0.88425   0.38549   1.000
    O12     O    0.60197   0.43884   0.05801   1.000
    O13     O    0.47085   0.09883   0.42684   1.000
    O14     O    0.75063   0.08266   0.33609   1.000
    O15     O    0.89109   0.38396   0.12512   1.000
    O16     O    0.88956   0.06183   0.55774   1.000
    O17     O    0.02176   0.40211   0.92681   1.000
    O18     O    0.74085   0.41743   0.83616   1.000
    O19     O    0.60072   0.11623   0.62515   1.000
    O20     O    0.38927   0.56182   0.94179   1.000
    O21     O    0.52642   0.90106   0.57268   1.000
    O22     O    0.24156   0.91669   0.66064   1.000
    O23     O    0.10009   0.61645   0.87459   1.000
    O24     O    0.10204   0.93892   0.44149   1.000
    O25     O    0.97091   0.59858   0.07250   1.000
    O26     O    0.25045   0.58257   0.16378   1.000
    O27     O    0.39085   0.88388   0.37468   1.000
    Og28    Og   0.55031   0.14126   0.33158   1.000
    Og29    Og   0.64571   0.36043   0.13288   1.000
    Og30    Og   0.94196   0.35935   0.83156   1.000
    Og31    Og   0.84616   0.14004   0.63278   1.000
    Og32    Og   0.44282   0.85866   0.66719   1.000
    Og33    Og   0.34550   0.64014   0.86684   1.000
    Og34    Og   0.04998   0.64105   0.16797   1.000
    Og35    Og   0.14546   0.86036   0.36671   1.000
loop_
    _geom_bond_atom_site_label_1
    _geom_bond_atom_site_label_2
    _geom_bond_distance
    _geom_bond_site_symmetry_2
    _ccdc_geom_bond_type
    Ca8    O26       2.40674      .   S
    Ca8    O17       2.31355  1_554   S
    O12    C4        1.28571      .   S
    O25    C10       1.27574  1_655   S
    O25    Ca1       2.31470  1_554   S
    C4     O15       1.25782      .   S
    C10    O26       1.26692      .   S
    O14    C3        1.26680      .   S
    O14    Ca2       2.40621  1_545   S
    C3     O13       1.27563      .   S
    O27    C11       1.25777      .   S
    C11    O24       1.28560      .   S
    O13    Ca0       2.31387      .   S
    Ca2    O21       2.30696      .   S
    Ca0    O22       2.39880  1_545   S
    O16    C6        1.28524      .   S
    O21    C7        1.27503      .   S
    C6     O19       1.25809      .   S
    C7     O22       1.26735      .   S
    O18    C5        1.26701      .   S
    O18    Ca1       2.40846      .   S
    C5     O17       1.27563  1_655   S
    O23    C9        1.25777      .   S
    C9     O20       1.28567      .   S
    O12    Ca8       2.43325      .   S
    O12    Ca1       2.42957  1_554   S
    O13    Ca2       2.71158  1_545   S
    O15    Ca8       2.41607  1_655   S
    O16    Ca0       2.43462  1_655   S
    O16    Ca2       2.42909  1_545   S
    O17    Ca1       2.70844  1_455   S
    O19    Ca0       2.41371      .   S
    O20    Ca8       2.42956  1_556   S
    O20    Ca1       2.43420      .   S
    O21    Ca0       2.74250  1_565   S
    O23    Ca1       2.41480  1_455   S
    O24    Ca0       2.42721  1_565   S
    O24    Ca2       2.43059  1_455   S
    O25    Ca8       2.70506  1_655   S
    O27    Ca2       2.41369      .   S
    C3     Og28      0.50163      .   S
    C4     Og29      0.50466      .   S
    C5     Og30      0.50177      .   S
    C6     Og31      0.50471      .   S
    C7     Og32      0.50188      .   S
    C9     Og33      0.50479      .   S
    C10    Og34      0.50163      .   S
    C11    Og35      0.50468      .   S
