# CIF file generated by openbabel 2.4.90, see http://openbabel.sf.net
data_I
_chemical_name_common ''
_cell_length_a 6.3285
_cell_length_b 13.6015
_cell_length_c 14.666
_cell_angle_alpha 90.018
_cell_angle_beta 90.088
_cell_angle_gamma 95.761
_space_group_name_H-M_alt 'P 1'
_space_group_name_Hall 'P 1'
loop_
    _symmetry_equiv_pos_as_xyz
    x,y,z
loop_
    _atom_site_label
    _atom_site_type_symbol
    _atom_site_fract_x
    _atom_site_fract_y
    _atom_site_fract_z
    _atom_site_occupancy
    C0      C    0.57889   0.11879   0.35465   1.000
    C1      C    0.69400   0.38429   0.11414   1.000
    C2      C    0.91335   0.38179   0.85464   1.000
    C3      C    0.79778   0.11615   0.61402   1.000
    C4      C    0.41481   0.88100   0.64382   1.000
    C5      C    0.29719   0.61628   0.88561   1.000
    C6      C    0.07862   0.61859   0.14493   1.000
    C7      C    0.19381   0.88425   0.38549   1.000
    O8      O    0.60197   0.43884   0.05801   1.000
    O9      O    0.47085   0.09883   0.42684   1.000
    O10     O    0.75063   0.08266   0.33609   1.000
    O11     O    0.89109   0.38396   0.12512   1.000
    O12     O    0.88956   0.06183   0.55774   1.000
    O13     O    0.02176   0.40211   0.92681   1.000
    O14     O    0.74085   0.41743   0.83616   1.000
    O15     O    0.60072   0.11623   0.62515   1.000
    O16     O    0.38927   0.56182   0.94179   1.000
    O17     O    0.52642   0.90106   0.57268   1.000
    O18     O    0.24156   0.91669   0.66064   1.000
    O19     O    0.10009   0.61645   0.87459   1.000
    O20     O    0.10204   0.93892   0.44149   1.000
    O21     O    0.97091   0.59858   0.07250   1.000
    O22     O    0.25045   0.58257   0.16378   1.000
    O23     O    0.39085   0.88388   0.37468   1.000
loop_
    _geom_bond_atom_site_label_1
    _geom_bond_atom_site_label_2
    _geom_bond_distance
    _geom_bond_site_symmetry_2
    _ccdc_geom_bond_type
    O8     C1        1.28571      .   S
    O21    C6        1.27574  1_655   S
    C1     O11       1.25782      .   S
    C6     O22       1.26692      .   S
    O10    C0        1.26680      .   S
    C0     O9        1.27563      .   S
    O23    C7        1.25777      .   S
    C7     O20       1.28560      .   S
    O12    C3        1.28524      .   S
    O17    C4        1.27503      .   S
    C3     O15       1.25809      .   S
    C4     O18       1.26735      .   S
    O14    C2        1.26701      .   S
    C2     O13       1.27563  1_655   S
    O19    C5        1.25777      .   S
    C5     O16       1.28567      .   S
