# CIF file generated by openbabel 2.4.90, see http://openbabel.sf.net
data_I
_chemical_name_common ''
_cell_length_a 6.3285
_cell_length_b 13.6015
_cell_length_c 14.666
_cell_angle_alpha 90.018
_cell_angle_beta 90.088
_cell_angle_gamma 95.761
_space_group_name_H-M_alt 'P 1'
_space_group_name_Hall 'P 1'
loop_
    _symmetry_equiv_pos_as_xyz
    x,y,z
loop_
    _atom_site_label
    _atom_site_type_symbol
    _atom_site_fract_x
    _atom_site_fract_y
    _atom_site_fract_z
    _atom_site_occupancy
    Zr0     Zr   0.22051   0.44951   0.05484   1.000
    Zr1     Zr   0.27127   0.05138   0.55437   1.000
    Zr2     Zr   0.77081   0.55094   0.94481   1.000
    Zr3     Zr   0.72093   0.94932   0.44457   1.000
    N4      N    0.38917   0.23358   0.22541   1.000
    N5      N    0.10299   0.26711   0.72536   1.000
    N6      N    0.88882   0.73326   0.27408   1.000
    N7      N    0.60243   0.76673   0.77418   1.000
    C8      C    0.22890   0.90235   0.40055   1.000
    O9      O    0.11698   0.84659   0.35813   1.000
    O10     O    0.20778   0.94875   0.44924   1.000
    O11     O    0.07019   0.92323   0.42179   1.000
    O12     O    0.39240   0.90947   0.40509   1.000
    C13     C    0.76268   0.09807   0.59897   1.000
    O14     O    0.87468   0.15381   0.64136   1.000
    O15     O    0.92155   0.07734   0.57751   1.000
    O16     O    0.78396   0.05182   0.55006   1.000
    O17     O    0.59934   0.09094   0.59436   1.000
    C18     C    0.60012   0.10009   0.37253   1.000
    O19     O    0.66795   0.05804   0.38143   1.000
    O20     O    0.48559   0.08760   0.43157   1.000
    O21     O    0.59801   0.06208   0.40412   1.000
    O22     O    0.53136   0.14656   0.32263   1.000
    C23     C    0.39426   0.89959   0.62571   1.000
    O24     O    0.32534   0.94181   0.61661   1.000
    O25     O    0.46194   0.85335   0.67612   1.000
    O26     O    0.50897   0.91239   0.56717   1.000
    O27     O    0.39655   0.93790   0.59462   1.000
    C28     C    0.09999   0.59991   0.12707   1.000
    O29     O    0.16774   0.55798   0.11819   1.000
    O30     O    0.98543   0.58734   0.06786   1.000
    O31     O    0.09785   0.56198   0.09537   1.000
    O32     O    0.03112   0.64634   0.17693   1.000
    C33     C    0.72902   0.40236   0.09909   1.000
    O34     O    0.57013   0.42327   0.07776   1.000
    O35     O    0.70770   0.44863   0.05025   1.000
    O36     O    0.89241   0.40955   0.09454   1.000
    O37     O    0.61719   0.34670   0.14146   1.000
    C38     C    0.26219   0.59818   0.90066   1.000
    O39     O    0.37411   0.65379   0.85824   1.000
    O40     O    0.09882   0.59094   0.90518   1.000
    O41     O    0.28354   0.55192   0.94949   1.000
    O42     O    0.42111   0.57728   0.92198   1.000
    C43     C    0.89199   0.40044   0.87254   1.000
    O44     O    0.00656   0.41313   0.93168   1.000
    O45     O    0.89414   0.43849   0.90417   1.000
    O46     O    0.82391   0.44231   0.88151   1.000
    O47     O    0.96081   0.35403   0.82261   1.000
loop_
    _geom_bond_atom_site_label_1
    _geom_bond_atom_site_label_2
    _geom_bond_distance
    _geom_bond_site_symmetry_2
    _ccdc_geom_bond_type
    C8     O9        1.16379      .   S
    N6     O9        2.35090  1_655   S
    C8     O10       0.97109      .   S
    Zr1    O10       2.09077  1_545   S
    C8     O11       1.11565      .   S
    Zr3    O11       2.29836  1_655   S
    C8     O12       1.03153      .   S
    Zr3    O12       2.17294      .   S
    C13    O14       1.16369      .   S
    N5     O14       2.35084  1_455   S
    C13    O15       1.11677      .   S
    Zr1    O15       2.30158  1_455   S
    C13    O16       0.97229      .   S
    Zr3    O16       2.09325  1_565   S
    C13    O17       1.03064      .   S
    Zr1    O17       2.17160      .   S
    C18    O19       0.75999      .   S
    Zr3    O19       1.80446  1_565   S
    C18    O20       1.13190      .   S
    Zr1    O20       2.28029      .   S
    C18    O21       0.69343      .   S
    Zr3    O21       1.88366  1_565   S
    C18    O22       1.08584      .   S
    N4     O22       2.11046      .   S
    C23    O24       0.76687      .   S
    Zr1    O24       1.80932  1_545   S
    C23    O25       1.08576      .   S
    N7     O25       2.11048      .   S
    C23    O26       1.12745      .   S
    Zr3    O26       2.27101      .   S
    C23    O27       0.69171      .   S
    Zr1    O27       1.89846  1_545   S
    C28    O29       0.75852      .   S
    Zr0    O29       1.80287      .   S
    C28    O30       1.13227  1_455   S
    Zr2    O30       2.28117  1_556   S
    C28    O31       0.69352      .   S
    Zr0    O31       1.88025      .   S
    C28    O32       1.08604      .   S
    N6     O32       2.11080  1_655   S
    C33    O34       1.11638      .   S
    Zr0    O34       2.30043      .   S
    C33    O35       0.97172      .   S
    Zr2    O35       2.09263  1_556   S
    C33    O36       1.03108      .   S
    Zr0    O36       2.17326  1_455   S
    C33    O37       1.16373      .   S
    N4     O37       2.35087      .   S
    C38    O39       1.16402      .   S
    N7     O39       2.35132      .   S
    C38    O40       1.03090      .   S
    Zr2    O40       2.17253  1_655   S
    C38    O41       0.97162      .   S
    Zr0    O41       2.09253  1_554   S
    C38    O42       1.11654      .   S
    Zr2    O42       2.30109      .   S
    C43    O44       1.13173  1_655   S
    Zr0    O44       2.27996  1_554   S
    C43    O45       0.69398      .   S
    Zr2    O45       1.88261      .   S
    C43    O46       0.75936      .   S
    Zr2    O46       1.80481      .   S
    C43    O47       1.08637      .   S
    N5     O47       2.11142  1_455   S
