# CIF file generated by openbabel 2.4.90, see http://openbabel.sf.net
data_I
_chemical_name_common ''
_cell_length_a 6.3285
_cell_length_b 13.6015
_cell_length_c 14.666
_cell_angle_alpha 90.018
_cell_angle_beta 90.088
_cell_angle_gamma 95.761
_space_group_name_H-M_alt 'P 1'
_space_group_name_Hall 'P 1'
loop_
    _symmetry_equiv_pos_as_xyz
    x,y,z
loop_
    _atom_site_label
    _atom_site_type_symbol
    _atom_site_fract_x
    _atom_site_fract_y
    _atom_site_fract_z
    _atom_site_occupancy
    C0      C    0.22051   0.44951   0.05484   1.000
    C1      C    0.27127   0.05138   0.55437   1.000
    C2      C    0.77081   0.55094   0.94481   1.000
    C3      C    0.72093   0.94932   0.44457   1.000
    C4      C    0.79937   0.26263   0.25218   1.000
    C5      C    0.16226   0.12696   0.29912   1.000
    C6      C    0.04278   0.23510   0.17524   1.000
    C7      C    0.69305   0.23770   0.75210   1.000
    C8      C    0.33010   0.37391   0.79911   1.000
    C9      C    0.44910   0.26587   0.67522   1.000
    C10     C    0.19226   0.73787   0.74714   1.000
    C11     C    0.82984   0.87288   0.70024   1.000
    C12     C    0.94865   0.76513   0.82465   1.000
    C13     C    0.29883   0.76270   0.24748   1.000
    C14     C    0.66190   0.62642   0.20027   1.000
    C15     C    0.54263   0.73442   0.32417   1.000
    C16     C    0.54912   0.31273   0.17038   1.000
    C17     C    0.57889   0.11879   0.35465   1.000
    C18     C    0.63041   0.25437   0.23736   1.000
    C19     C    0.27683   0.17880   0.26393   1.000
    C20     C    0.49315   0.18621   0.28543   1.000
    C21     C    0.69400   0.38429   0.11414   1.000
    C22     C    0.20896   0.23920   0.19529   1.000
    C23     C    0.94293   0.18781   0.67030   1.000
    C24     C    0.91335   0.38179   0.85464   1.000
    C25     C    0.86190   0.24613   0.73730   1.000
    C26     C    0.21538   0.32198   0.76393   1.000
    C27     C    0.99919   0.31446   0.78540   1.000
    C28     C    0.79778   0.11615   0.61402   1.000
    C29     C    0.28302   0.26161   0.69525   1.000
    C30     C    0.44210   0.68785   0.82932   1.000
    C31     C    0.41481   0.88100   0.64382   1.000
    C32     C    0.36115   0.74611   0.76213   1.000
    C33     C    0.71507   0.82133   0.73563   1.000
    C34     C    0.49883   0.81398   0.71392   1.000
    C35     C    0.29719   0.61628   0.88561   1.000
    C36     C    0.78254   0.76113   0.80450   1.000
    C37     C    0.04876   0.81259   0.32917   1.000
    C38     C    0.07862   0.61859   0.14493   1.000
    C39     C    0.12994   0.75428   0.26221   1.000
    C40     C    0.77648   0.67839   0.23549   1.000
    C41     C    0.99271   0.68599   0.21405   1.000
    C42     C    0.19381   0.88425   0.38549   1.000
    C43     C    0.70872   0.73873   0.30416   1.000
    C44     C    0.33969   0.30619   0.14977   1.000
    C45     C    0.15220   0.19451   0.64966   1.000
    C46     C    0.65146   0.69431   0.85006   1.000
    C47     C    0.83945   0.80586   0.34975   1.000
    C48     C    0.60197   0.43884   0.05801   1.000
    C49     C    0.47085   0.09883   0.42684   1.000
    C50     C    0.75063   0.08266   0.33609   1.000
    C51     C    0.89109   0.38396   0.12512   1.000
    C52     C    0.88956   0.06183   0.55774   1.000
    C53     C    0.02176   0.40211   0.92681   1.000
    C54     C    0.74085   0.41743   0.83616   1.000
    C55     C    0.60072   0.11623   0.62515   1.000
    C56     C    0.38927   0.56182   0.94179   1.000
    C57     C    0.52642   0.90106   0.57268   1.000
    C58     C    0.24156   0.91669   0.66064   1.000
    C59     C    0.10009   0.61645   0.87459   1.000
    C60     C    0.10204   0.93892   0.44149   1.000
    C61     C    0.97091   0.59858   0.07250   1.000
    C62     C    0.25045   0.58257   0.16378   1.000
    C63     C    0.39085   0.88388   0.37468   1.000
    O64     O    0.23548   0.51604   0.10931   1.000
    O65     O    0.12114   0.42581   0.99083   1.000
    O66     O    0.64799   0.41157   0.08608   1.000
    O67     O    0.02477   0.60858   0.10872   1.000
    O68     O    0.87086   0.57476   0.00865   1.000
    O69     O    0.79254   0.38412   0.11963   1.000
    O70     O    0.62156   0.34851   0.14226   1.000
    O71     O    0.16453   0.60058   0.15436   1.000
    O72     O    0.03566   0.65229   0.17949   1.000
    O73     O    0.44440   0.30946   0.16007   1.000
    O74     O    0.27432   0.27270   0.17253   1.000
    O75     O    0.58977   0.28355   0.20387   1.000
    O76     O    0.12587   0.23715   0.18527   1.000
    O77     O    0.24289   0.20900   0.22961   1.000
    O78     O    0.71919   0.65240   0.21788   1.000
    O79     O    0.88459   0.68219   0.22477   1.000
    O80     O    0.06133   0.72013   0.23813   1.000
    O81     O    0.74260   0.70856   0.26982   1.000
    O82     O    0.71489   0.25850   0.24477   1.000
    O83     O    0.56178   0.22029   0.26140   1.000
    O84     O    0.21439   0.75849   0.25485   1.000
    O85     O    0.08935   0.78343   0.29569   1.000
    O86     O    0.38499   0.18250   0.27468   1.000
    O87     O    0.21955   0.15288   0.28153   1.000
    O88     O    0.53602   0.15250   0.32004   1.000
    O89     O    0.62568   0.73658   0.31416   1.000
    O90     O    0.77408   0.77230   0.32695   1.000
    O91     O    0.94410   0.80922   0.33946   1.000
    O92     O    0.12128   0.84842   0.35733   1.000
    O93     O    0.66476   0.10073   0.34537   1.000
    O94     O    0.73578   0.01599   0.39033   1.000
    O95     O    0.52487   0.10881   0.39075   1.000
    O96     O    0.29233   0.88406   0.38008   1.000
    O97     O    0.14792   0.91158   0.41349   1.000
    O98     O    0.37106   0.07510   0.49060   1.000
    O99     O    0.62367   0.92519   0.50862   1.000
    O100    O    0.25641   0.98404   0.60750   1.000
    O101    O    0.84367   0.08899   0.58588   1.000
    O102    O    0.47061   0.89103   0.60825   1.000
    O103    O    0.69925   0.11619   0.61958   1.000
    O104    O    0.87035   0.15198   0.64216   1.000
    O105    O    0.32818   0.89885   0.65223   1.000
    O106    O    0.45682   0.84749   0.67887   1.000
    O107    O    0.04757   0.19116   0.65998   1.000
    O108    O    0.21761   0.22806   0.67245   1.000
    O109    O    0.90242   0.21697   0.70380   1.000
    O110    O    0.36606   0.26374   0.68523   1.000
    O111    O    0.24920   0.29180   0.72959   1.000
    O112    O    0.77246   0.84710   0.71793   1.000
    O113    O    0.60695   0.81765   0.72477   1.000
    O114    O    0.42999   0.78004   0.73802   1.000
    O115    O    0.74880   0.79123   0.77007   1.000
    O116    O    0.77747   0.24192   0.74470   1.000
    O117    O    0.93055   0.28029   0.76135   1.000
    O118    O    0.27671   0.74199   0.75464   1.000
    O119    O    0.40163   0.71698   0.79573   1.000
    O120    O    0.10729   0.31822   0.77466   1.000
    O121    O    0.27274   0.34795   0.78152   1.000
    O122    O    0.95627   0.34812   0.82002   1.000
    O123    O    0.86559   0.76313   0.81457   1.000
    O124    O    0.71700   0.72772   0.82728   1.000
    O125    O    0.54678   0.69108   0.83969   1.000
    O126    O    0.36965   0.65206   0.85746   1.000
    O127    O    0.82710   0.39961   0.84540   1.000
    O128    O    0.75583   0.48418   0.89048   1.000
    O129    O    0.96755   0.39195   0.89072   1.000
    O130    O    0.19864   0.61637   0.88010   1.000
    O131    O    0.34323   0.58905   0.91370   1.000
    O132    O    0.41124   0.44418   0.05643   1.000
    O133    O    0.68639   0.49489   0.00141   1.000
    O134    O    0.59589   0.02407   0.43570   1.000
    O135    O    0.05580   0.41673   0.08998   1.000
    O136    O    0.08041   0.05661   0.55605   1.000
    O137    O    0.80525   0.00557   0.50115   1.000
    O138    O    0.89628   0.47653   0.93581   1.000
    O139    O    0.43599   0.08381   0.58976   1.000
    O140    O    0.30489   0.50566   0.99832   1.000
    O141    O    0.58004   0.55638   0.94330   1.000
    O142    O    0.39884   0.97622   0.56352   1.000
    O143    O    0.93545   0.58370   0.90970   1.000
    O144    O    0.18665   0.99515   0.49793   1.000
    O145    O    0.91149   0.94412   0.44303   1.000
    O146    O    0.09571   0.52404   0.06367   1.000
    O147    O    0.55589   0.91660   0.40962   1.000
loop_
    _geom_bond_atom_site_label_1
    _geom_bond_atom_site_label_2
    _geom_bond_distance
    _geom_bond_site_symmetry_2
    _ccdc_geom_bond_type
    C0     O64       1.20337      .   S
    C62    O64       1.20337      .   S
    C0     O65       1.15678  1_554   S
    C53    O65       1.15678      .   S
    C48    O66       0.64286      .   S
    C21    O66       0.64286      .   S
    C61    O67       0.63787  1_655   S
    C38    O67       0.63787      .   S
    C61    O68       1.15735      .   S
    C2     O68       1.15735  1_556   S
    C21    O69       0.62891      .   S
    C51    O69       0.62891      .   S
    C21    O70       0.75700      .   S
    C16    O70       0.75700      .   S
    C38    O71       0.63346      .   S
    C62    O71       0.63346      .   S
    C38    O72       0.75245      .   S
    C41    O72       0.75245  1_655   S
    C44    O73       0.67657      .   S
    C16    O73       0.67657      .   S
    C44    O74       0.67291      .   S
    C22    O74       0.67291      .   S
    C16    O75       0.69651      .   S
    C18    O75       0.69651      .   S
    C6     O76       0.54380      .   S
    C22    O76       0.54380      .   S
    C22    O77       0.69694      .   S
    C19    O77       0.69694      .   S
    C14    O78       0.54495      .   S
    C40    O78       0.54495      .   S
    C41    O79       0.69911      .   S
    C40    O79       0.69911      .   S
    C41    O80       0.69852  1_655   S
    C39    O80       0.69852      .   S
    C40    O81       0.69700      .   S
    C43    O81       0.69700      .   S
    C18    O82       0.54276      .   S
    C4     O82       0.54276      .   S
    C18    O83       0.69852      .   S
    C20    O83       0.69852      .   S
    C13    O84       0.54275      .   S
    C39    O84       0.54275      .   S
    C39    O85       0.69646      .   S
    C37    O85       0.69646      .   S
    C19    O86       0.69906      .   S
    C20    O86       0.69906      .   S
    C19    O87       0.54494      .   S
    C5     O87       0.54494      .   S
    C20    O88       0.75244      .   S
    C17    O88       0.75244      .   S
    C43    O89       0.54382      .   S
    C15    O89       0.54382      .   S
    C43    O90       0.67294      .   S
    C47    O90       0.67294      .   S
    C37    O91       0.67657  1_455   S
    C47    O91       0.67657      .   S
    C37    O92       0.75702      .   S
    C42    O92       0.75702      .   S
    C50    O93       0.63340      .   S
    C17    O93       0.63340      .   S
    C50    O94       1.20311      .   S
    C3     O94       1.20311  1_565   S
    C17    O95       0.63782      .   S
    C49    O95       0.63782      .   S
    C63    O96       0.62889      .   S
    C42    O96       0.62889      .   S
    C42    O97       0.64280      .   S
    C60    O97       0.64280      .   S
    C49    O98       1.15694      .   S
    C1     O98       1.15694      .   S
    C3     O99       1.15348      .   S
    C57    O99       1.15348      .   S
    C1     O100      1.19940  1_545   S
    C58    O100      1.19940      .   S
    C52    O101      0.64262      .   S
    C28    O101      0.64262      .   S
    C57    O102      0.63751      .   S
    C31    O102      0.63751      .   S
    C28    O103      0.62904      .   S
    C55    O103      0.62904      .   S
    C28    O104      0.75707      .   S
    C23    O104      0.75707      .   S
    C31    O105      0.63367      .   S
    C58    O105      0.63367      .   S
    C31    O106      0.75282      .   S
    C34    O106      0.75282      .   S
    C45    O107      0.67657      .   S
    C23    O107      0.67657  1_655   S
    C45    O108      0.67296      .   S
    C29    O108      0.67296      .   S
    C23    O109      0.69648      .   S
    C25    O109      0.69648      .   S
    C9     O110      0.54384      .   S
    C29    O110      0.54384      .   S
    C29    O111      0.69703      .   S
    C26    O111      0.69703      .   S
    C11    O112      0.54492      .   S
    C33    O112      0.54492      .   S
    C34    O113      0.69916      .   S
    C33    O113      0.69916      .   S
    C34    O114      0.69860      .   S
    C32    O114      0.69860      .   S
    C33    O115      0.69682      .   S
    C36    O115      0.69682      .   S
    C25    O116      0.54274      .   S
    C7     O116      0.54274      .   S
    C25    O117      0.69855      .   S
    C27    O117      0.69855      .   S
    C10    O118      0.54280      .   S
    C32    O118      0.54280      .   S
    C32    O119      0.69677      .   S
    C30    O119      0.69677      .   S
    C26    O120      0.69907      .   S
    C27    O120      0.69907  1_655   S
    C26    O121      0.54494      .   S
    C8     O121      0.54494      .   S
    C27    O122      0.75266      .   S
    C24    O122      0.75266      .   S
    C36    O123      0.54382      .   S
    C12    O123      0.54382      .   S
    C36    O124      0.67290      .   S
    C46    O124      0.67290      .   S
    C30    O125      0.67658      .   S
    C46    O125      0.67658      .   S
    C30    O126      0.75719      .   S
    C35    O126      0.75719      .   S
    C54    O127      0.63351      .   S
    C24    O127      0.63351      .   S
    C54    O128      1.20423      .   S
    C2     O128      1.20423      .   S
    C24    O129      0.63781      .   S
    C53    O129      0.63781  1_455   S
    C59    O130      0.62889      .   S
    C35    O130      0.62889      .   S
    C35    O131      0.64284      .   S
    C56    O131      0.64284      .   S
    C48    O132      1.21662      .   S
    C0     O132      1.21662      .   S
    C48    O133      1.21479      .   S
    C2     O133      1.21479  1_556   S
    C49    O134      1.35579      .   S
    C3     O134      1.35579  1_565   S
    C51    O135      1.20804  1_655   S
    C0     O135      1.20804      .   S
    C52    O136      1.21731  1_655   S
    C1     O136      1.21731      .   S
    C52    O137      1.21455      .   S
    C3     O137      1.21455  1_565   S
    C53    O138      1.35422  1_455   S
    C2     O138      1.35422      .   S
    C55    O139      1.20685      .   S
    C1     O139      1.20685      .   S
    C56    O140      1.21478      .   S
    C0     O140      1.21478  1_554   S
    C56    O141      1.21710      .   S
    C2     O141      1.21710      .   S
    C57    O142      1.37125      .   S
    C1     O142      1.37125  1_545   S
    C59    O143      1.20740  1_455   S
    C2     O143      1.20740      .   S
    C60    O144      1.21360      .   S
    C1     O144      1.21360  1_545   S
    C60    O145      1.21529  1_455   S
    C3     O145      1.21529      .   S
    C61    O146      1.35253  1_655   S
    C0     O146      1.35253      .   S
    C63    O147      1.20684      .   S
    C3     O147      1.20684      .   S
