# CIF file generated by openbabel 2.4.90, see http://openbabel.sf.net
data_I
_chemical_name_common 'VESTA_phase_1'
_cell_length_a 14.074
_cell_length_b 16.943
_cell_length_c 16.943
_cell_angle_alpha 111.854
_cell_angle_beta 91.018
_cell_angle_gamma 91.021
_space_group_name_H-M_alt 'P 1'
_space_group_name_Hall 'P 1'
loop_
    _symmetry_equiv_pos_as_xyz
    x,y,z
loop_
    _atom_site_label
    _atom_site_type_symbol
    _atom_site_fract_x
    _atom_site_fract_y
    _atom_site_fract_z
    _atom_site_occupancy
    Cd0     Cd   0.37500   0.46380   0.03610   1.000
    Cd1     Cd   0.37500   0.46379   0.53618   1.000
    Cd2     Cd   0.37500   0.96379   0.03619   1.000
    Cd3     Cd   0.37500   0.96379   0.53618   1.000
    Cd4     Cd   0.87499   0.46380   0.03619   1.000
    Cd5     Cd   0.87499   0.46380   0.53618   1.000
    Cd6     Cd   0.87498   0.96379   0.03619   1.000
    Cd7     Cd   0.87498   0.96379   0.53618   1.000
    Cd8     Cd   0.12502   0.03619   0.46378   1.000
    Cd9     Cd   0.12502   0.03619   0.96377   1.000
    Cd10    Cd   0.12501   0.53618   0.46378   1.000
    Cd11    Cd   0.12501   0.53618   0.96377   1.000
    Cd12    Cd   0.62500   0.03619   0.46378   1.000
    Cd13    Cd   0.62501   0.03619   0.96377   1.000
    Cd14    Cd   0.62500   0.53619   0.46378   1.000
    Cd15    Cd   0.62500   0.53618   0.96377   1.000
    H16     H    0.03224   0.00615   0.14278   1.000
    H17     H    0.03224   0.00615   0.64277   1.000
    H18     H    0.03224   0.50614   0.14278   1.000
    H19     H    0.03224   0.50614   0.64277   1.000
    H20     H    0.53223   0.00614   0.14278   1.000
    H21     H    0.53223   0.00614   0.64277   1.000
    H22     H    0.53222   0.50613   0.14278   1.000
    H23     H    0.53223   0.50613   0.64277   1.000
    H24     H    0.43221   0.11830   0.21967   1.000
    H25     H    0.43222   0.11830   0.71966   1.000
    H26     H    0.43221   0.61830   0.21967   1.000
    H27     H    0.43221   0.61830   0.71966   1.000
    H28     H    0.93218   0.11830   0.21968   1.000
    H29     H    0.93218   0.11830   0.71967   1.000
    H30     H    0.93217   0.61830   0.21968   1.000
    H31     H    0.93218   0.61829   0.71967   1.000
    H32     H    0.37066   0.04777   0.25807   1.000
    H33     H    0.37066   0.04777   0.75806   1.000
    H34     H    0.37066   0.54776   0.25807   1.000
    H35     H    0.37066   0.54776   0.75806   1.000
    H36     H    0.87064   0.04775   0.25807   1.000
    H37     H    0.87064   0.04775   0.75800   1.000
    H38     H    0.87063   0.54774   0.25807   1.000
    H39     H    0.87063   0.54774   0.75800   1.000
    H40     H    0.41899   0.39546   0.20626   1.000
    H41     H    0.41899   0.39546   0.70625   1.000
    H42     H    0.41899   0.89545   0.20626   1.000
    H43     H    0.41899   0.89545   0.70625   1.000
    H44     H    0.91899   0.39545   0.20620   1.000
    H45     H    0.91900   0.39545   0.70620   1.000
    H46     H    0.91899   0.89544   0.20625   1.000
    H47     H    0.91899   0.89544   0.70624   1.000
    H48     H    0.01139   0.36323   0.13110   1.000
    H49     H    0.01139   0.36323   0.63118   1.000
    H50     H    0.01138   0.86322   0.13119   1.000
    H51     H    0.01139   0.86322   0.63118   1.000
    H52     H    0.51135   0.36322   0.13100   1.000
    H53     H    0.51135   0.36322   0.63118   1.000
    H54     H    0.51135   0.86321   0.13119   1.000
    H55     H    0.51135   0.86321   0.63118   1.000
    H56     H    0.21777   0.35720   0.49384   1.000
    H57     H    0.21778   0.35720   0.99383   1.000
    H58     H    0.21777   0.85719   0.49384   1.000
    H59     H    0.21777   0.85719   0.99383   1.000
    H60     H    0.71777   0.35720   0.49384   1.000
    H61     H    0.71777   0.35719   0.99380   1.000
    H62     H    0.71776   0.85719   0.49384   1.000
    H63     H    0.71776   0.85719   0.99384   1.000
    H64     H    0.31779   0.28032   0.38167   1.000
    H65     H    0.31779   0.28031   0.88160   1.000
    H66     H    0.31779   0.78031   0.38167   1.000
    H67     H    0.31779   0.78031   0.88160   1.000
    H68     H    0.81779   0.28032   0.38160   1.000
    H69     H    0.81779   0.28031   0.88167   1.000
    H70     H    0.81779   0.78031   0.38168   1.000
    H71     H    0.81779   0.78031   0.88167   1.000
    H72     H    0.37935   0.24192   0.45220   1.000
    H73     H    0.37935   0.24192   0.95200   1.000
    H74     H    0.37935   0.74191   0.45220   1.000
    H75     H    0.37935   0.74191   0.95200   1.000
    H76     H    0.87935   0.24192   0.45221   1.000
    H77     H    0.87935   0.24192   0.95220   1.000
    H78     H    0.87934   0.74192   0.45221   1.000
    H79     H    0.87934   0.74191   0.95220   1.000
    H80     H    0.33101   0.29373   0.10452   1.000
    H81     H    0.33101   0.29372   0.60451   1.000
    H82     H    0.33100   0.79372   0.10452   1.000
    H83     H    0.33100   0.79372   0.60451   1.000
    H84     H    0.83100   0.29373   0.10452   1.000
    H85     H    0.83100   0.29372   0.60451   1.000
    H86     H    0.83100   0.79372   0.10452   1.000
    H87     H    0.83100   0.79372   0.60451   1.000
    H88     H    0.23864   0.36878   0.13676   1.000
    H89     H    0.23864   0.36878   0.63675   1.000
    H90     H    0.23863   0.86877   0.13676   1.000
    H91     H    0.23863   0.86877   0.63675   1.000
    H92     H    0.73864   0.36878   0.13676   1.000
    H93     H    0.73864   0.36878   0.63675   1.000
    H94     H    0.73863   0.86877   0.13676   1.000
    H95     H    0.73863   0.86877   0.63675   1.000
    H96     H    0.46777   0.49385   0.35719   1.000
    H97     H    0.46778   0.49385   0.85718   1.000
    H98     H    0.46777   0.99384   0.35719   1.000
    H99     H    0.46777   0.99384   0.85718   1.000
    H100    H    0.96776   0.49384   0.35718   1.000
    H101    H    0.96776   0.49384   0.85717   1.000
    H102    H    0.96776   0.99383   0.35718   1.000
    H103    H    0.96776   0.99383   0.85717   1.000
    H104    H    0.06783   0.38169   0.28028   1.000
    H105    H    0.06783   0.38169   0.78027   1.000
    H106    H    0.06782   0.88168   0.28028   1.000
    H107    H    0.06782   0.88168   0.78020   1.000
    H108    H    0.56779   0.38168   0.28029   1.000
    H109    H    0.56779   0.38168   0.78028   1.000
    H110    H    0.56778   0.88168   0.28029   1.000
    H111    H    0.56779   0.88168   0.78028   1.000
    H112    H    0.12937   0.45224   0.24190   1.000
    H113    H    0.12937   0.45224   0.74189   1.000
    H114    H    0.12936   0.95223   0.24190   1.000
    H115    H    0.12937   0.95223   0.74189   1.000
    H116    H    0.62935   0.45222   0.24100   1.000
    H117    H    0.62935   0.45222   0.74180   1.000
    H118    H    0.62934   0.95221   0.24100   1.000
    H119    H    0.62934   0.95221   0.74189   1.000
    H120    H    0.08101   0.10454   0.29372   1.000
    H121    H    0.08102   0.10454   0.79371   1.000
    H122    H    0.08100   0.60453   0.29372   1.000
    H123    H    0.08101   0.60453   0.79371   1.000
    H124    H    0.58101   0.10453   0.29371   1.000
    H125    H    0.58101   0.10453   0.79300   1.000
    H126    H    0.58101   0.60453   0.29371   1.000
    H127    H    0.58101   0.60452   0.79370   1.000
    H128    H    0.48865   0.13677   0.36877   1.000
    H129    H    0.48866   0.13677   0.86876   1.000
    H130    H    0.48865   0.63676   0.36877   1.000
    H131    H    0.48865   0.63676   0.86876   1.000
    H132    H    0.98861   0.13676   0.36878   1.000
    H133    H    0.98862   0.13676   0.86877   1.000
    H134    H    0.98861   0.63675   0.36878   1.000
    H135    H    0.98861   0.63675   0.86877   1.000
    H136    H    0.28224   0.14279   0.00612   1.000
    H137    H    0.28224   0.14279   0.50611   1.000
    H138    H    0.28224   0.64278   0.00612   1.000
    H139    H    0.28223   0.64278   0.50611   1.000
    H140    H    0.78223   0.14279   0.00612   1.000
    H141    H    0.78223   0.14279   0.50611   1.000
    H142    H    0.78223   0.64278   0.00612   1.000
    H143    H    0.78223   0.64278   0.50611   1.000
    H144    H    0.18222   0.21967   0.11829   1.000
    H145    H    0.18222   0.21967   0.61828   1.000
    H146    H    0.18221   0.71967   0.11829   1.000
    H147    H    0.18221   0.71966   0.61828   1.000
    H148    H    0.68221   0.21967   0.11829   1.000
    H149    H    0.68221   0.21967   0.61828   1.000
    H150    H    0.68221   0.71967   0.11829   1.000
    H151    H    0.68221   0.71966   0.61828   1.000
    H152    H    0.12066   0.25807   0.04775   1.000
    H153    H    0.12066   0.25806   0.54774   1.000
    H154    H    0.12065   0.75806   0.04775   1.000
    H155    H    0.12066   0.75805   0.54774   1.000
    H156    H    0.62066   0.25807   0.04776   1.000
    H157    H    0.62065   0.25806   0.54775   1.000
    H158    H    0.62065   0.75806   0.04776   1.000
    H159    H    0.62065   0.75806   0.54775   1.000
    H160    H    0.16900   0.20626   0.39544   1.000
    H161    H    0.16900   0.20626   0.89543   1.000
    H162    H    0.16900   0.70626   0.39544   1.000
    H163    H    0.16900   0.70625   0.89540   1.000
    H164    H    0.66900   0.20626   0.39544   1.000
    H165    H    0.66900   0.20626   0.89544   1.000
    H166    H    0.66899   0.70625   0.39544   1.000
    H167    H    0.66900   0.70625   0.89544   1.000
    H168    H    0.26137   0.13121   0.36320   1.000
    H169    H    0.26137   0.13120   0.86319   1.000
    H170    H    0.26137   0.63120   0.36320   1.000
    H171    H    0.26137   0.63120   0.86319   1.000
    H172    H    0.76137   0.13121   0.36321   1.000
    H173    H    0.76137   0.13121   0.86320   1.000
    H174    H    0.76136   0.63120   0.36320   1.000
    H175    H    0.76136   0.63120   0.86320   1.000
    C176    C    0.44050   0.06362   0.23895   1.000
    C177    C    0.44050   0.06362   0.73894   1.000
    C178    C    0.44050   0.56361   0.23895   1.000
    C179    C    0.44050   0.56361   0.73894   1.000
    C180    C    0.94048   0.06361   0.23895   1.000
    C181    C    0.94048   0.06361   0.73894   1.000
    C182    C    0.94047   0.56361   0.23895   1.000
    C183    C    0.94047   0.56360   0.73894   1.000
    C184    C    0.48695   0.41550   0.18757   1.000
    C185    C    0.48695   0.41550   0.68756   1.000
    C186    C    0.48694   0.91549   0.18757   1.000
    C187    C    0.48695   0.91549   0.68756   1.000
    C188    C    0.98695   0.41550   0.18756   1.000
    C189    C    0.98695   0.41550   0.68755   1.000
    C190    C    0.98694   0.91549   0.18756   1.000
    C191    C    0.98695   0.91549   0.68755   1.000
    C192    C    0.30951   0.26104   0.43636   1.000
    C193    C    0.30950   0.26104   0.93635   1.000
    C194    C    0.30950   0.76103   0.43636   1.000
    C195    C    0.30950   0.76103   0.93635   1.000
    C196    C    0.80950   0.26104   0.43636   1.000
    C197    C    0.80950   0.26104   0.93635   1.000
    C198    C    0.80949   0.76103   0.43636   1.000
    C199    C    0.80950   0.76103   0.93635   1.000
    C200    C    0.26305   0.31241   0.08440   1.000
    C201    C    0.26305   0.31241   0.58447   1.000
    C202    C    0.26304   0.81240   0.08448   1.000
    C203    C    0.26304   0.81240   0.58447   1.000
    C204    C    0.76304   0.31241   0.08448   1.000
    C205    C    0.76304   0.31241   0.58447   1.000
    C206    C    0.76304   0.81240   0.08448   1.000
    C207    C    0.76304   0.81240   0.58447   1.000
    C208    C    0.05952   0.43638   0.26101   1.000
    C209    C    0.05953   0.43637   0.76100   1.000
    C210    C    0.05952   0.93637   0.26101   1.000
    C211    C    0.05953   0.93637   0.76100   1.000
    C212    C    0.55950   0.43637   0.26102   1.000
    C213    C    0.55950   0.43637   0.76101   1.000
    C214    C    0.55950   0.93636   0.26102   1.000
    C215    C    0.55950   0.93636   0.76101   1.000
    C216    C    0.01305   0.08449   0.31240   1.000
    C217    C    0.01306   0.08449   0.81239   1.000
    C218    C    0.01305   0.58448   0.31240   1.000
    C219    C    0.01305   0.58448   0.81239   1.000
    C220    C    0.51305   0.08449   0.31240   1.000
    C221    C    0.51305   0.08449   0.81238   1.000
    C222    C    0.51305   0.58449   0.31240   1.000
    C223    C    0.51305   0.58448   0.81239   1.000
    C224    C    0.19050   0.23895   0.06360   1.000
    C225    C    0.19051   0.23895   0.56359   1.000
    C226    C    0.19050   0.73894   0.06360   1.000
    C227    C    0.19050   0.73894   0.56359   1.000
    C228    C    0.69050   0.23895   0.06360   1.000
    C229    C    0.69050   0.23895   0.56360   1.000
    C230    C    0.69050   0.73894   0.06360   1.000
    C231    C    0.69049   0.73894   0.56360   1.000
    C232    C    0.23696   0.18758   0.41548   1.000
    C233    C    0.23696   0.18758   0.91547   1.000
    C234    C    0.23696   0.68757   0.41548   1.000
    C235    C    0.23696   0.68757   0.91547   1.000
    C236    C    0.73696   0.18758   0.41548   1.000
    C237    C    0.73696   0.18758   0.91548   1.000
    C238    C    0.73695   0.68757   0.41548   1.000
    C239    C    0.73695   0.68757   0.91548   1.000
    Br240   Br   0.21176   0.04754   0.12344   1.000
    Br241   Br   0.21176   0.04754   0.62340   1.000
    Br242   Br   0.21176   0.54753   0.12344   1.000
    Br243   Br   0.21176   0.54753   0.62340   1.000
    Br244   Br   0.71175   0.04754   0.12344   1.000
    Br245   Br   0.71175   0.04753   0.62340   1.000
    Br246   Br   0.71174   0.54753   0.12344   1.000
    Br247   Br   0.71175   0.54753   0.62340   1.000
    Br248   Br   0.03826   0.37653   0.45244   1.000
    Br249   Br   0.03826   0.37653   0.95243   1.000
    Br250   Br   0.03826   0.87653   0.45244   1.000
    Br251   Br   0.03826   0.87652   0.95243   1.000
    Br252   Br   0.53825   0.37653   0.45244   1.000
    Br253   Br   0.53825   0.37653   0.95243   1.000
    Br254   Br   0.53824   0.87653   0.45244   1.000
    Br255   Br   0.53824   0.87652   0.95243   1.000
    Br256   Br   0.28826   0.45245   0.37652   1.000
    Br257   Br   0.28826   0.45245   0.87651   1.000
    Br258   Br   0.28825   0.95244   0.37652   1.000
    Br259   Br   0.28825   0.95244   0.87651   1.000
    Br260   Br   0.78824   0.45245   0.37652   1.000
    Br261   Br   0.78824   0.45244   0.87651   1.000
    Br262   Br   0.78824   0.95244   0.37652   1.000
    Br263   Br   0.78824   0.95244   0.87651   1.000
    Br264   Br   0.46176   0.12346   0.04752   1.000
    Br265   Br   0.46176   0.12345   0.54751   1.000
    Br266   Br   0.46176   0.62345   0.04752   1.000
    Br267   Br   0.46176   0.62345   0.54751   1.000
    Br268   Br   0.96174   0.12346   0.04753   1.000
    Br269   Br   0.96175   0.12345   0.54752   1.000
    Br270   Br   0.96174   0.62345   0.04750   1.000
    Br271   Br   0.96174   0.62345   0.54752   1.000
    N272    N    0.46890   0.48978   0.16359   1.000
    N273    N    0.46891   0.48978   0.66359   1.000
    N274    N    0.46890   0.98977   0.16300   1.000
    N275    N    0.46891   0.98977   0.66359   1.000
    N276    N    0.96890   0.48979   0.16360   1.000
    N277    N    0.96890   0.48978   0.66359   1.000
    N278    N    0.96889   0.98978   0.16360   1.000
    N279    N    0.96889   0.98978   0.66358   1.000
    N280    N    0.28110   0.33639   0.01020   1.000
    N281    N    0.28109   0.33638   0.51019   1.000
    N282    N    0.28109   0.83638   0.01020   1.000
    N283    N    0.28108   0.83637   0.51019   1.000
    N284    N    0.78108   0.33638   0.01020   1.000
    N285    N    0.78109   0.33638   0.51019   1.000
    N286    N    0.78108   0.83638   0.01020   1.000
    N287    N    0.78109   0.83638   0.51019   1.000
    N288    N    0.03111   0.01020   0.33637   1.000
    N289    N    0.03111   0.01020   0.83635   1.000
    N290    N    0.03111   0.51020   0.33637   1.000
    N291    N    0.03111   0.51019   0.83636   1.000
    N292    N    0.53110   0.01021   0.33637   1.000
    N293    N    0.53110   0.01021   0.83636   1.000
    N294    N    0.53109   0.51020   0.33636   1.000
    N295    N    0.53109   0.51020   0.83636   1.000
    N296    N    0.21892   0.16360   0.48976   1.000
    N297    N    0.21893   0.16360   0.98970   1.000
    N298    N    0.21891   0.66359   0.48976   1.000
    N299    N    0.21892   0.66359   0.98975   1.000
    N300    N    0.71891   0.16360   0.48970   1.000
    N301    N    0.71891   0.16359   0.98975   1.000
    N302    N    0.71891   0.66360   0.48977   1.000
    N303    N    0.71891   0.66359   0.98976   1.000
loop_
    _geom_bond_atom_site_label_1
    _geom_bond_atom_site_label_2
    _geom_bond_distance
    _geom_bond_site_symmetry_2
    _ccdc_geom_bond_type
    H136   N297      1.03496  1_554   S
    H138   N299      1.03465  1_554   S
    H140   N301      1.03465  1_554   S
    H142   N303      1.03458  1_554   S
    N280   Cd0       2.40241      .   S
    N280   C200      1.48260      .   S
    N280   C193      1.48399  1_554   S
    N280   H57       1.03465  1_554   S
    N282   Cd2       2.40223      .   S
    N282   C202      1.48383      .   S
    N282   C195      1.48399  1_554   S
    N282   H59       1.03465  1_554   S
    N284   Cd4       2.40229      .   S
    N284   C204      1.48376      .   S
    N284   C197      1.48399  1_554   S
    N284   H61       1.03483  1_554   S
    N286   Cd6       2.40223      .   S
    N286   C206      1.48382      .   S
    N286   C199      1.48400  1_554   S
    N286   H63       1.03457  1_554   S
    Cd0    Br242     2.85566      .   S
    Cd0    N272      2.40337      .   S
    Cd0    Br253     2.85499  1_554   S
    Cd6    Br244     2.85513  1_565   S
    Cd6    N278      2.40227      .   S
    Cd6    Br251     2.85579  1_654   S
    Cd2    Br240     2.85510  1_565   S
    Cd2    N274      2.39395      .   S
    Cd2    Br255     2.85548  1_554   S
    Cd4    Br246     2.85518      .   S
    Cd4    N276      2.40230      .   S
    Cd4    Br249     2.85581  1_654   S
    Br270  Cd11      2.85562  1_654   S
    Br266  Cd15      2.85542  1_554   S
    Br264  Cd13      2.85540  1_554   S
    Br268  Cd9       2.85579  1_654   S
    H154   C226      1.10000      .   S
    H152   C224      1.10000      .   S
    H156   C228      1.09996      .   S
    H158   C230      1.09997      .   S
    C228   C204      1.52665      .   S
    C228   H148      1.09851      .   S
    C228   N301      1.48400  1_554   S
    C230   C206      1.52665      .   S
    C230   H150      1.09851      .   S
    C230   N303      1.48391  1_554   S
    C226   C202      1.52666      .   S
    C226   H146      1.09851      .   S
    C226   N299      1.48400  1_554   S
    C224   C200      1.52678      .   S
    C224   H144      1.09851      .   S
    C224   N297      1.48444  1_554   S
    C200   H80       1.10035      .   S
    C200   H88       1.09949      .   S
    C206   H86       1.09982      .   S
    C206   H94       1.09883      .   S
    C204   H84       1.09983      .   S
    C204   H92       1.09884      .   S
    C202   H82       1.09981      .   S
    C202   H90       1.09884      .   S
    H52    C184      1.10074      .   S
    H48    C188      1.09979  1_455   S
    H54    C186      1.09889      .   S
    H50    C190      1.09892  1_455   S
    H18    N276      1.03499  1_455   S
    H20    N274      1.03021  1_545   S
    H22    N272      1.03457      .   S
    H16    N278      1.03518  1_445   S
    N274   C186      1.48979      .   S
    N274   C176      1.48944  1_565   S
    N272   C184      1.48389      .   S
    N272   C178      1.48380      .   S
    N276   C188      1.48384      .   S
    N276   C182      1.48375      .   S
    N278   C190      1.48380      .   S
    N278   C180      1.48379  1_565   S
    C190   H46       1.09986      .   S
    C190   C210      1.52691  1_655   S
    C188   H44       1.09948      .   S
    C188   C208      1.52690  1_655   S
    C186   H42       1.09981      .   S
    C186   C214      1.52667      .   S
    C184   H40       1.09983      .   S
    C184   C212      1.52668      .   S
    H26    C178      1.09849      .   S
    H24    C176      1.09848      .   S
    H28    C180      1.09843      .   S
    H30    C182      1.09842      .   S
    C178   H34       1.09998      .   S
    C178   C222      1.52665      .   S
    C176   H32       1.09997      .   S
    C176   C220      1.52667      .   S
    C180   H36       1.10002      .   S
    C180   C216      1.52690  1_655   S
    C182   H38       1.10000      .   S
    C182   C218      1.52693  1_655   S
    H116   C212      1.10618      .   S
    H118   C214      1.10619      .   S
    H114   C210      1.09994      .   S
    H112   C208      1.09995      .   S
    C210   H106      1.09841      .   S
    C210   N288      1.48388  1_565   S
    C208   H104      1.09843      .   S
    C208   N290      1.48378      .   S
    C214   H110      1.09838      .   S
    C214   N292      1.48381  1_565   S
    C212   H108      1.09836      .   S
    C212   N294      1.48367      .   S
    H124   C220      1.09982      .   S
    H126   C222      1.09982      .   S
    H120   C216      1.09979      .   S
    H122   C218      1.09980      .   S
    C222   N294      1.48378      .   S
    C222   H130      1.09879      .   S
    C220   N292      1.48383      .   S
    C220   H128      1.09879      .   S
    C218   N290      1.48384      .   S
    C218   H134      1.09902  1_455   S
    C216   N288      1.48388      .   S
    C216   H132      1.09901  1_455   S
    N294   H96       1.03465      .   S
    N294   Cd14      2.40245      .   S
    N292   H98       1.03479  1_545   S
    N292   Cd12      2.40228      .   S
    N288   H102      1.03511  1_445   S
    N288   Cd8       2.40228      .   S
    N290   H100      1.03497  1_455   S
    N290   Cd10      2.40225      .   S
    H168   C232      1.09883      .   S
    H170   C234      1.09883      .   S
    H174   C238      1.09886      .   S
    H172   C236      1.09876      .   S
    Br258  Cd8       2.85516  1_565   S
    Br260  Cd14      2.85523      .   S
    Br262  Cd12      2.85518  1_565   S
    Br256  Cd10      2.85519      .   S
    H68    C196      1.09964      .   S
    H64    C192      1.09850      .   S
    H66    C194      1.09852      .   S
    H70    C198      1.09834      .   S
    H164   C236      1.09981      .   S
    H162   C234      1.09982      .   S
    H166   C238      1.09981      .   S
    H160   C232      1.09982      .   S
    C238   C198      1.52665      .   S
    C238   N302      1.48392      .   S
    C236   C196      1.52665      .   S
    C236   N300      1.48285      .   S
    C234   C194      1.52664      .   S
    C234   N298      1.48389      .   S
    C232   C192      1.52666      .   S
    C232   N296      1.48382      .   S
    C194   H74       1.09994      .   S
    C194   N283      1.48373      .   S
    C192   H72       1.09995      .   S
    C192   N281      1.48373      .   S
    C196   H76       1.10000      .   S
    C196   N285      1.48373      .   S
    C198   H78       1.10000      .   S
    C198   N287      1.48374      .   S
    Br252  Cd1       2.85527      .   S
    Br250  Cd7       2.85561  1_455   S
    Br248  Cd5       2.85564  1_455   S
    Br254  Cd3       2.85529      .   S
    Cd12   N300      2.40244      .   S
    Cd12   Br265     2.85521      .   S
    Cd8    N296      2.40222      .   S
    Cd8    Br269     2.85561  1_455   S
    Cd10   N298      2.40215      .   S
    Cd10   Br271     2.85561  1_455   S
    Cd14   N302      2.40231      .   S
    Cd14   Br267     2.85523      .   S
    N300   H141      1.03500      .   S
    N300   C229      1.48436      .   S
    N298   H139      1.03462      .   S
    N298   C227      1.48374      .   S
    N296   H137      1.03461      .   S
    N296   C225      1.48373      .   S
    N302   H143      1.03456      .   S
    N302   C231      1.48372      .   S
    H62    N287      1.03461      .   S
    H60    N285      1.03462      .   S
    H58    N283      1.03462      .   S
    H56    N281      1.03462      .   S
    N285   Cd5       2.40221      .   S
    N285   C205      1.48382      .   S
    N287   Cd7       2.40214      .   S
    N287   C207      1.48388      .   S
    N283   Cd3       2.40231      .   S
    N283   C203      1.48376      .   S
    N281   Cd1       2.40225      .   S
    N281   C201      1.48382      .   S
    Cd1    Br243     2.85499      .   S
    Cd1    N273      2.40228      .   S
    Cd3    Br241     2.85495  1_565   S
    Cd3    N275      2.40231      .   S
    Cd5    Br247     2.85495      .   S
    Cd5    N277      2.40228      .   S
    Cd7    Br245     2.85493  1_565   S
    Cd7    N279      2.40210      .   S
    H155   C227      1.09999      .   S
    H153   C225      1.10000      .   S
    H159   C231      1.10000      .   S
    H157   C229      1.10000      .   S
    C227   C203      1.52665      .   S
    C227   H147      1.09850      .   S
    C225   C201      1.52666      .   S
    C225   H145      1.09850      .   S
    C231   C207      1.52667      .   S
    C231   H151      1.09835      .   S
    C229   C205      1.52667      .   S
    C229   H149      1.09834      .   S
    C207   H87       1.09982      .   S
    C207   H95       1.09883      .   S
    C205   H85       1.09981      .   S
    C205   H93       1.09884      .   S
    C203   H83       1.09981      .   S
    C203   H91       1.09886      .   S
    C201   H81       1.09981      .   S
    C201   H89       1.09885      .   S
    H53    C185      1.09889      .   S
    H55    C187      1.09888      .   S
    H51    C191      1.09891  1_455   S
    H49    C189      1.09891  1_455   S
    H17    N279      1.03514  1_445   S
    H19    N277      1.03502  1_455   S
    H21    N275      1.03476  1_545   S
    H23    N273      1.03461      .   S
    N279   C191      1.48386      .   S
    N279   C181      1.48386  1_565   S
    N277   C189      1.48379      .   S
    N277   C183      1.48372      .   S
    N275   C187      1.48387      .   S
    N275   C177      1.48384  1_565   S
    N273   C185      1.48382      .   S
    N273   C179      1.48375      .   S
    C191   H47       1.09988      .   S
    C191   C211      1.52691  1_655   S
    C189   H45       1.09957      .   S
    C189   C209      1.52690  1_655   S
    C187   H43       1.09981      .   S
    C187   C215      1.52665      .   S
    C185   H41       1.09982      .   S
    C185   C213      1.52667      .   S
    H27    C179      1.09847      .   S
    H25    C177      1.09846      .   S
    H31    C183      1.09841      .   S
    H29    C181      1.09841      .   S
    C183   H39       1.09961      .   S
    C183   C219      1.52690  1_655   S
    C181   H37       1.09961      .   S
    C181   C217      1.52689  1_655   S
    C179   H35       1.09997      .   S
    C179   C223      1.52667      .   S
    C177   H33       1.09997      .   S
    C177   C221      1.52655      .   S
    H117   C213      1.10058      .   S
    H119   C215      1.09999      .   S
    H113   C209      1.09995      .   S
    H115   C211      1.09994      .   S
    C211   H107      1.09770      .   S
    C211   N289      1.48381  1_565   S
    C209   H105      1.09841      .   S
    C209   N291      1.48382      .   S
    C213   H109      1.09838      .   S
    C213   N295      1.48373      .   S
    C215   H111      1.09839      .   S
    C215   N293      1.48377  1_565   S
    H125   C221      1.10477      .   S
    H127   C223      1.09982      .   S
    H121   C217      1.09979      .   S
    H123   C219      1.09979      .   S
    C221   N293      1.48388      .   S
    C221   H129      1.09889      .   S
    C217   N289      1.48382      .   S
    C217   H133      1.09901  1_455   S
    C223   N295      1.48383      .   S
    C223   H131      1.09879      .   S
    C219   N291      1.48389      .   S
    C219   H135      1.09902  1_455   S
    N289   H103      1.03516  1_445   S
    N289   Cd9       2.40244      .   S
    N291   H101      1.03494  1_455   S
    N291   Cd11      2.40227      .   S
    N295   H97       1.03462      .   S
    N295   Cd15      2.40229      .   S
    N293   H99       1.03484  1_545   S
    N293   Cd13      2.40225      .   S
    H171   C235      1.09883      .   S
    H169   C233      1.09885      .   S
    H173   C237      1.09882      .   S
    H175   C239      1.09883      .   S
    Br261  Cd15      2.85520      .   S
    Br259  Cd9       2.85520  1_565   S
    Br263  Cd13      2.85517  1_565   S
    Br257  Cd11      2.85523      .   S
    H65    C193      1.09948      .   S
    H67    C195      1.09948      .   S
    H69    C197      1.09836      .   S
    H71    C199      1.09835      .   S
    H163   C235      1.10004      .   S
    H161   C233      1.09983      .   S
    H167   C239      1.09981      .   S
    H165   C237      1.09981      .   S
    C235   C195      1.52665      .   S
    C235   N299      1.48382      .   S
    C233   C193      1.52666      .   S
    C233   N297      1.48296      .   S
    C239   C199      1.52667      .   S
    C239   N303      1.48384      .   S
    C237   C197      1.52667      .   S
    C237   N301      1.48373      .   S
    C193   H73       1.09888      .   S
    C195   H75       1.09888      .   S
    C197   H77       1.10000      .   S
    C199   H79       1.10000      .   S
    Cd15   N303      2.40221      .   S
    Cd13   N301      2.40220      .   S
    Cd11   N299      2.40225      .   S
    Cd9    N297      2.40245      .   S
