# CIF file generated by openbabel 2.4.90, see http://openbabel.sf.net
data_I
_chemical_name_common ''
_cell_length_a 14.056
_cell_length_b 17.915
_cell_length_c 17.917
_cell_angle_alpha 100.312
_cell_angle_beta 91.959
_cell_angle_gamma 91.889
_space_group_name_H-M_alt 'P 1'
_space_group_name_Hall 'P 1'
loop_
    _symmetry_equiv_pos_as_xyz
    x,y,z
loop_
    _atom_site_label
    _atom_site_type_symbol
    _atom_site_fract_x
    _atom_site_fract_y
    _atom_site_fract_z
    _atom_site_occupancy
    Zr0     Zr   0.10066   0.09029   0.91865   1.000
    Zr1     Zr   0.89933   0.08141   0.90968   1.000
    Zr2     Zr   0.41677   0.29387   0.45975   1.000
    Zr3     Zr   0.21326   0.28365   0.45036   1.000
    Zr4     Zr   0.58320   0.54029   0.70619   1.000
    Zr5     Zr   0.78672   0.54963   0.71670   1.000
    O6      O    1.00000   0.08585   0.91417   1.000
    O7      O    0.31502   0.28876   0.45505   1.000
    O8      O    0.68496   0.54496   0.71144   1.000
    N9      N    0.64340   0.53032   0.20777   1.000
    O10     O    0.70797   0.54246   0.99076   1.000
    O11     O    0.61790   0.53163   0.42804   1.000
    O12     O    0.61668   0.53757   0.98616   1.000
    O13     O    0.70913   0.53693   0.43299   1.000
    N14     N    0.35656   0.79240   0.46981   1.000
    O15     O    0.29081   0.56725   0.46313   1.000
    O16     O    0.38204   0.57208   0.46848   1.000
    O17     O    0.29200   0.00948   0.45759   1.000
    O18     O    0.38329   0.01397   0.46250   1.000
    N19     N    0.81494   0.29059   0.45283   1.000
    O20     O    0.65256   0.29293   0.45559   1.000
    O21     O    0.97736   0.28706   0.45171   1.000
    N22     N    0.64528   0.04142   0.70375   1.000
    O23     O    0.62067   0.81973   0.70732   1.000
    O24     O    0.71099   0.26594   0.70821   1.000
    O25     O    0.71196   0.82447   0.71230   1.000
    O26     O    0.61971   0.26185   0.70257   1.000
    N27     N    0.49999   0.08487   0.91515   1.000
    O28     O    0.66271   0.08341   0.91299   1.000
    O29     O    0.33728   0.08700   0.91664   1.000
    N30     N    0.03832   0.58791   0.91780   1.000
    O31     O    0.06332   0.36786   0.92237   1.000
    O32     O    0.06193   0.81009   0.91431   1.000
    O33     O    0.97312   0.36367   0.91364   1.000
    O34     O    0.97127   0.80575   0.91285   1.000
    N35     N    0.96176   0.08194   0.41204   1.000
    O36     O    0.02691   0.08622   0.63632   1.000
    O37     O    0.02878   0.08700   0.19426   1.000
    O38     O    0.93671   0.07755   0.63208   1.000
    O39     O    0.93811   0.08557   0.18987   1.000
    N40     N    0.35459   0.29632   0.95863   1.000
    O41     O    0.28894   0.29198   0.73408   1.000
    O42     O    0.37925   0.29277   0.18030   1.000
    O43     O    0.28797   0.28787   0.17555   1.000
    O44     O    0.38021   0.29748   0.73821   1.000
    N45     N    0.18504   0.54716   0.70951   1.000
    O46     O    0.34742   0.54443   0.70716   1.000
    O47     O    0.02263   0.54827   0.71314   1.000
loop_
    _geom_bond_atom_site_label_1
    _geom_bond_atom_site_label_2
    _geom_bond_distance
    _geom_bond_site_symmetry_2
    _ccdc_geom_bond_type
    Zr0    O6        1.41329  1_455   S
    Zr1    O6        1.41329      .   S
    Zr2    O7        1.42879      .   S
    Zr3    O7        1.42879      .   S
    Zr4    O8        1.42891      .   S
    Zr5    O8        1.42891      .   S
    N9     O10       4.06448  1_554   S
    Zr5    O10       5.09324      .   S
    N9     O11       3.97106      .   S
    Zr4    O11       4.99918      .   S
    N9     O12       4.00108  1_554   S
    Zr4    O12       5.03136      .   S
    N9     O13       4.08870      .   S
    Zr5    O13       5.12561      .   S
    N14    O15       4.08811      .   S
    Zr3    O15       5.12408      .   S
    N14    O16       3.97102      .   S
    Zr2    O16       4.99897      .   S
    N14    O17       4.06426  1_565   S
    Zr3    O17       5.09345      .   S
    N14    O18       4.00075  1_565   S
    Zr2    O18       5.03016      .   S
    N19    O20       2.28614      .   S
    Zr2    O20       3.31819      .   S
    N19    O21       2.28662      .   S
    Zr3    O21       3.31934  1_455   S
    N22    O23       3.98733  1_545   S
    Zr4    O23       5.01296      .   S
    N22    O24       4.08323      .   S
    Zr5    O24       5.13237      .   S
    N22    O25       4.05613  1_545   S
    Zr5    O25       5.08214      .   S
    N22    O26       3.98085      .   S
    Zr4    O26       5.02042      .   S
    N27    O28       2.28976      .   S
    Zr1    O28       3.32978      .   S
    N27    O29       2.28967      .   S
    Zr0    O29       3.32964      .   S
    N30    O31       3.98438      .   S
    Zr0    O31       5.00636      .   S
    N30    O32       3.99516      .   S
    Zr0    O32       5.01772  1_545   S
    N30    O33       4.07782  1_455   S
    Zr1    O33       5.11589      .   S
    N30    O34       4.06043  1_455   S
    Zr1    O34       5.08328  1_545   S
    N35    O36       4.07749  1_655   S
    Zr0    O36       5.11588      .   S
    N35    O37       4.06127  1_655   S
    Zr0    O37       5.08430  1_556   S
    N35    O38       3.98466      .   S
    Zr1    O38       5.00763      .   S
    N35    O39       3.99544      .   S
    Zr1    O39       5.01811  1_556   S
    N40    O41       4.08320      .   S
    Zr3    O41       5.13258      .   S
    N40    O42       3.98718  1_556   S
    Zr2    O42       5.01298      .   S
    N40    O43       4.05654  1_556   S
    Zr3    O43       5.08271      .   S
    N40    O44       3.98159      .   S
    Zr2    O44       5.02206      .   S
    N45    O46       2.28610      .   S
    Zr4    O46       3.31810      .   S
    N45    O47       2.28671      .   S
    Zr5    O47       3.31947  1_655   S
