# CIF file generated by openbabel 2.4.90, see http://openbabel.sf.net
data_I
_chemical_name_common ''
_cell_length_a 13.128
_cell_length_b 13.969
_cell_length_c 16.99
_cell_angle_alpha 90
_cell_angle_beta 90.046
_cell_angle_gamma 90.119
_space_group_name_H-M_alt 'P 1'
_space_group_name_Hall 'P 1'
loop_
    _symmetry_equiv_pos_as_xyz
    x,y,z
loop_
    _atom_site_label
    _atom_site_type_symbol
    _atom_site_fract_x
    _atom_site_fract_y
    _atom_site_fract_z
    _atom_site_occupancy
    Zr0     Zr   0.42651   0.97964   0.40638   1.000
    Zr1     Zr   0.47618   0.90836   0.07314   1.000
    Zr2     Zr   0.57337   0.52032   0.90639   1.000
    Zr3     Zr   0.52378   0.59164   0.57314   1.000
    Zr4     Zr   0.92757   0.01861   0.09660   1.000
    Zr5     Zr   0.97780   0.09226   0.42943   1.000
    Zr6     Zr   0.07250   0.48178   0.59663   1.000
    Zr7     Zr   0.02210   0.40781   0.92939   1.000
    Zr8     Zr   0.57316   0.02040   0.59365   1.000
    Zr9     Zr   0.52404   0.09152   0.92690   1.000
    Zr10    Zr   0.42680   0.47966   0.09366   1.000
    Zr11    Zr   0.47583   0.40846   0.42701   1.000
    Zr12    Zr   0.07213   0.98035   0.90660   1.000
    Zr13    Zr   0.02226   0.90849   0.57320   1.000
    Zr14    Zr   0.92734   0.51974   0.40685   1.000
    Zr15    Zr   0.97752   0.59162   0.07325   1.000
    C16     C    0.44447   0.46415   0.26794   1.000
    C17     C    0.94527   0.03455   0.26952   1.000
    C18     C    0.94449   0.53347   0.23214   1.000
    C19     C    0.55551   0.03584   0.76796   1.000
    C20     C    0.44429   0.96417   0.23216   1.000
    C21     C    0.55563   0.53582   0.73215   1.000
    C22     C    0.05374   0.96624   0.73245   1.000
    C23     C    0.05484   0.46550   0.76949   1.000
    C24     C    0.91334   0.96133   0.28599   1.000
    O25     O    0.93112   0.99538   0.33876   1.000
    O26     O    0.92386   0.98554   0.28055   1.000
    C27     C    0.47844   0.88958   0.25014   1.000
    O28     O    0.46469   0.91353   0.30581   1.000
    O29     O    0.46695   0.91460   0.24412   1.000
    O30     O    0.48159   0.88646   0.19079   1.000
    C31     C    0.29454   0.51978   0.58194   1.000
    O32     O    0.35870   0.47420   0.52497   1.000
    O33     O    0.22190   0.50066   0.58351   1.000
    O34     O    0.37482   0.54033   0.57290   1.000
    C35     C    0.51514   0.21538   0.50093   1.000
    O36     O    0.50043   0.27585   0.47115   1.000
    O37     O    0.53167   0.14377   0.52794   1.000
    O38     O    0.48527   0.12909   0.46236   1.000
    C39     C    0.98296   0.21445   0.00320   1.000
    O40     O    0.01305   0.12870   0.96403   1.000
    O41     O    0.99731   0.27507   0.97342   1.000
    O42     O    0.96742   0.14259   0.03039   1.000
    C43     C    0.79470   0.48152   0.91945   1.000
    O44     O    0.85934   0.52662   0.97622   1.000
    O45     O    0.87443   0.46038   0.92882   1.000
    O46     O    0.72232   0.50093   0.91829   1.000
    C47     C    0.48467   0.28467   0.00080   1.000
    O48     O    0.49939   0.22418   0.97105   1.000
    O49     O    0.46816   0.35628   0.02787   1.000
    O50     O    0.51454   0.37094   0.96230   1.000
    C51     C    0.70544   0.98035   0.08208   1.000
    O52     O    0.64122   0.02589   0.02504   1.000
    O53     O    0.62514   0.95975   0.07300   1.000
    O54     O    0.77809   0.99955   0.08361   1.000
    C55     C    0.01687   0.78491   0.99941   1.000
    O56     O    0.98681   0.87052   0.03879   1.000
    O57     O    0.03245   0.85664   0.97244   1.000
    O58     O    0.00243   0.72427   0.02920   1.000
    C59     C    0.29448   0.01943   0.91872   1.000
    O60     O    0.22178   0.00002   0.91788   1.000
    O61     O    0.37491   0.04005   0.92750   1.000
    O62     O    0.35892   0.97390   0.97545   1.000
    C63     C    0.51551   0.71527   0.99917   1.000
    O64     O    0.53197   0.64367   0.97214   1.000
    O65     O    0.50084   0.77573   0.02898   1.000
    O66     O    0.48567   0.62900   0.03773   1.000
    C67     C    0.20546   0.51875   0.08157   1.000
    O68     O    0.27786   0.49930   0.08240   1.000
    O69     O    0.12555   0.53964   0.07271   1.000
    O70     O    0.14061   0.47340   0.02530   1.000
    C71     C    0.41170   0.53659   0.28570   1.000
    O72     O    0.42925   0.50277   0.33792   1.000
    O73     O    0.42250   0.51264   0.27980   1.000
    C74     C    0.52151   0.61040   0.75012   1.000
    O75     O    0.53524   0.58644   0.80581   1.000
    O76     O    0.51837   0.61352   0.69077   1.000
    O77     O    0.53299   0.58538   0.74411   1.000
    C78     C    0.98349   0.71533   0.49931   1.000
    O79     O    0.01336   0.62974   0.53875   1.000
    O80     O    0.99780   0.77592   0.52912   1.000
    O81     O    0.96769   0.64355   0.47241   1.000
    C82     C    0.47855   0.38958   0.24995   1.000
    O83     O    0.48158   0.38649   0.30932   1.000
    O84     O    0.46484   0.41354   0.19425   1.000
    O85     O    0.46709   0.41459   0.25597   1.000
    C86     C    0.97667   0.60928   0.24992   1.000
    O87     O    0.98052   0.61266   0.19065   1.000
    O88     O    0.96349   0.58559   0.30576   1.000
    O89     O    0.96584   0.58382   0.24396   1.000
    C90     C    0.70534   0.48064   0.41884   1.000
    O91     O    0.62493   0.45999   0.42760   1.000
    O92     O    0.64094   0.52615   0.47553   1.000
    O93     O    0.77794   0.50007   0.41805   1.000
    C94     C    0.48450   0.78472   0.49918   1.000
    O95     O    0.51433   0.87101   0.53773   1.000
    O96     O    0.46800   0.85631   0.47213   1.000
    O97     O    0.49917   0.72426   0.52898   1.000
    C98     C    0.01686   0.28569   0.50324   1.000
    O99     O    0.03247   0.35762   0.53042   1.000
    O100    O    0.00253   0.22506   0.47346   1.000
    O101    O    0.98667   0.37143   0.46411   1.000
    C102    C    0.97857   0.10996   0.25257   1.000
    O103    O    0.96736   0.08466   0.25825   1.000
    O104    O    0.98160   0.11332   0.31198   1.000
    O105    O    0.96547   0.08578   0.19694   1.000
    C106    C    0.20520   0.01856   0.41959   1.000
    O107    O    0.27757   0.99909   0.41838   1.000
    O108    O    0.14056   0.97350   0.47633   1.000
    O109    O    0.12549   0.03974   0.42895   1.000
    C110    C    0.41148   0.03660   0.21442   1.000
    O111    O    0.42230   0.01266   0.22032   1.000
    O112    O    0.42923   0.00279   0.16221   1.000
    C113    C    0.91369   0.46003   0.21463   1.000
    O114    O    0.92383   0.48430   0.22045   1.000
    O115    O    0.93131   0.49462   0.16239   1.000
    C116    C    0.58826   0.96338   0.78574   1.000
    O117    O    0.57746   0.98734   0.77983   1.000
    O118    O    0.57068   0.99719   0.83792   1.000
    C119    C    0.79429   0.98144   0.58132   1.000
    O120    O    0.87420   0.96049   0.57249   1.000
    O121    O    0.72197   0.00088   0.58222   1.000
    O122    O    0.85918   0.02675   0.52514   1.000
    C123    C    0.08604   0.03922   0.71490   1.000
    O124    O    0.07540   0.01510   0.72076   1.000
    O125    O    0.06850   0.00490   0.66250   1.000
    C126    C    0.52143   0.11043   0.74994   1.000
    O127    O    0.51836   0.11351   0.80928   1.000
    O128    O    0.53514   0.08649   0.69424   1.000
    O129    O    0.53289   0.08541   0.75597   1.000
    C130    C    0.01864   0.39013   0.75249   1.000
    O131    O    0.03129   0.41542   0.75819   1.000
    O132    O    0.01485   0.38677   0.81191   1.000
    O133    O    0.03317   0.41439   0.69689   1.000
    C134    C    0.58840   0.46338   0.71443   1.000
    O135    O    0.57069   0.49721   0.66222   1.000
    O136    O    0.57760   0.48733   0.72032   1.000
    C137    C    0.08685   0.53867   0.78602   1.000
    O138    O    0.07630   0.51448   0.78055   1.000
    O139    O    0.06895   0.50465   0.83876   1.000
    C140    C    0.01824   0.89099   0.75006   1.000
    O141    O    0.03049   0.91625   0.74417   1.000
    O142    O    0.03291   0.91463   0.80580   1.000
    O143    O    0.01469   0.88762   0.69072   1.000
loop_
    _geom_bond_atom_site_label_1
    _geom_bond_atom_site_label_2
    _geom_bond_distance
    _geom_bond_site_symmetry_2
    _ccdc_geom_bond_type
    C24    O25       1.04099      .   S
    Zr5    O25       2.13894  1_545   S
    C24    O26       0.37655      .   S
    C17    O26       0.76300  1_545   S
    C27    O28       1.01971      .   S
    Zr0    O28       2.00668      .   S
    C27    O29       0.39439      .   S
    C20    O29       0.78100      .   S
    C27    O30       1.01011      .   S
    Zr1    O30       2.02336      .   S
    C31    O32       1.43363      .   S
    Zr11   O32       2.44702      .   S
    C31    O33       0.99012      .   S
    Zr6    O33       1.99114      .   S
    C31    O34       1.10272      .   S
    Zr3    O34       2.08131      .   S
    C35    O36       1.00368      .   S
    Zr11   O36       2.02499      .   S
    C35    O37       1.12199      .   S
    Zr8    O37       2.12514      .   S
    C35    O38       1.42615      .   S
    Zr0    O38       2.41873  1_565   S
    C39    O40       1.42695  1_654   S
    Zr12   O40       2.41996  1_565   S
    C39    O41       1.00412  1_554   S
    Zr7    O41       2.02525  1_455   S
    C39    O42       1.12328      .   S
    Zr4    O42       2.12975      .   S
    C43    O44       1.42960      .   S
    Zr15   O44       2.43704  1_554   S
    C43    O45       1.09960      .   S
    Zr7    O45       2.07444  1_455   S
    C43    O46       0.98894      .   S
    Zr2    O46       1.98473      .   S
    C47    O48       1.00377  1_554   S
    Zr9    O48       2.02592      .   S
    C47    O49       1.12256      .   S
    Zr10   O49       2.12597      .   S
    C47    O50       1.42568  1_554   S
    Zr2    O50       2.41817      .   S
    C51    O52       1.43380  1_565   S
    Zr9    O52       2.44727  1_556   S
    C51    O53       1.10290      .   S
    Zr1    O53       2.08172      .   S
    C51    O54       0.99057      .   S
    Zr4    O54       1.99182  1_545   S
    C55    O56       1.42685  1_456   S
    Zr4    O56       2.42012  1_545   S
    C55    O57       1.12039      .   S
    Zr12   O57       2.12276      .   S
    C55    O58       1.00446  1_556   S
    Zr15   O58       2.02458  1_655   S
    C59    O60       0.99172      .   S
    Zr12   O60       1.99219  1_565   S
    C59    O61       1.10385      .   S
    Zr9    O61       2.08428      .   S
    C59    O62       1.43181  1_545   S
    Zr1    O62       2.44228  1_554   S
    C63    O64       1.12208      .   S
    Zr2    O64       2.12533      .   S
    C63    O65       1.00390  1_556   S
    Zr1    O65       2.02555      .   S
    C63    O66       1.42594  1_556   S
    Zr10   O66       2.41796      .   S
    C67    O68       0.98914      .   S
    Zr10   O68       1.98411      .   S
    C67    O69       1.09977      .   S
    Zr15   O69       2.07588  1_655   S
    C67    O70       1.42705      .   S
    Zr7    O70       2.43011  1_556   S
    C71    O72       1.03119      .   S
    Zr11   O72       2.09824      .   S
    C71    O73       0.37730      .   S
    C16    O73       0.76382      .   S
    C74    O75       1.01964      .   S
    Zr2    O75       2.00615      .   S
    C74    O76       1.01004      .   S
    Zr3    O76       2.02311      .   S
    C74    O77       0.39438      .   S
    C21    O77       0.78092      .   S
    C78    O79       1.42606  1_655   S
    Zr6    O79       2.41813      .   S
    C78    O80       1.00376      .   S
    Zr13   O80       2.02250  1_455   S
    C78    O81       1.12070      .   S
    Zr14   O81       2.12320      .   S
    C82    O83       1.01038      .   S
    Zr11   O83       2.02448      .   S
    C82    O84       1.01983      .   S
    Zr10   O84       2.00595      .   S
    C82    O85       0.39430      .   S
    C16    O85       0.78082      .   S
    C86    O87       1.00942      .   S
    Zr15   O87       2.01645      .   S
    C86    O88       1.01966      .   S
    Zr14   O88       2.00512      .   S
    C86    O89       0.39578      .   S
    C18    O89       0.78279      .   S
    C90    O91       1.10398      .   S
    Zr11   O91       2.08410      .   S
    C90    O92       1.43176      .   S
    Zr3    O92       2.44191      .   S
    C90    O93       0.99045      .   S
    Zr14   O93       1.98929      .   S
    C94    O95       1.42581      .   S
    Zr8    O95       2.41790  1_545   S
    C94    O96       1.12198      .   S
    Zr0    O96       2.12501      .   S
    C94    O97       1.00363      .   S
    Zr3    O97       2.02518      .   S
    C98    O99       1.12424      .   S
    Zr6    O99       2.13179      .   S
    C98    O100      1.00402      .   S
    Zr5    O100      2.02563  1_655   S
    C98    O101      1.42654  1_455   S
    Zr14   O101      2.41881      .   S
    C102   O103      0.39455      .   S
    C17    O103      0.78100      .   S
    C102   O104      1.01121      .   S
    Zr5    O104      2.01776      .   S
    C102   O105      1.01807      .   S
    Zr4    O105      2.00766      .   S
    C106   O107      0.98901  1_545   S
    Zr0    O107      1.98528      .   S
    C106   O108      1.43004  1_545   S
    Zr13   O108      2.43787      .   S
    C106   O109      1.09970      .   S
    Zr5    O109      2.07452  1_655   S
    C110   O111      0.37718      .   S
    C20    O111      0.76379  1_565   S
    C110   O112      1.03200      .   S
    Zr1    O112      2.10124  1_565   S
    C113   O114      0.37716      .   S
    C18    O114      0.76417      .   S
    C113   O115      1.03655      .   S
    Zr15   O115      2.12037      .   S
    C116   O117      0.37730      .   S
    C19    O117      0.76389  1_545   S
    C116   O118      1.03103      .   S
    Zr9    O118      2.09805  1_545   S
    C119   O120      1.10011      .   S
    Zr13   O120      2.07639  1_455   S
    C119   O121      0.98823  1_565   S
    Zr8    O121      1.98273      .   S
    C119   O122      1.42706  1_565   S
    Zr5    O122      2.42999      .   S
    C123   O124      0.37796      .   S
    C22    O124      0.76513  1_565   S
    C123   O125      1.03669      .   S
    Zr13   O125      2.11641  1_565   S
    C126   O127      1.00999      .   S
    Zr9    O127      2.02312      .   S
    C126   O128      1.02001      .   S
    Zr8    O128      2.00633      .   S
    C126   O129      0.39434      .   S
    C19    O129      0.78094      .   S
    C130   O131      0.40175      .   S
    C23    O131      0.78794      .   S
    C130   O132      1.01179      .   S
    Zr7    O132      2.01972      .   S
    C130   O133      1.02160      .   S
    Zr6    O133      2.01339      .   S
    C134   O135      1.03171      .   S
    Zr3    O135      2.10039      .   S
    C134   O136      0.37716      .   S
    C21    O136      0.76370      .   S
    C137   O138      0.37652      .   S
    C23    O138      0.76292      .   S
    C137   O139      1.04120      .   S
    Zr7    O139      2.13938      .   S
    C140   O141      0.40012      .   S
    C22    O141      0.78721      .   S
    C140   O142      1.02107      .   S
    Zr12   O142      2.00935      .   S
    C140   O143      1.01033      .   S
    Zr13   O143      2.02026      .   S
