# CIF file generated by openbabel 2.4.90, see http://openbabel.sf.net
data_I
_chemical_name_common ''
_cell_length_a 13.128
_cell_length_b 13.969
_cell_length_c 16.99
_cell_angle_alpha 90
_cell_angle_beta 90.046
_cell_angle_gamma 90.119
_space_group_name_H-M_alt 'P 1'
_space_group_name_Hall 'P 1'
loop_
    _symmetry_equiv_pos_as_xyz
    x,y,z
loop_
    _atom_site_label
    _atom_site_type_symbol
    _atom_site_fract_x
    _atom_site_fract_y
    _atom_site_fract_z
    _atom_site_occupancy
    C0      C    0.42651   0.97964   0.40638   1.000
    C1      C    0.47618   0.90836   0.07314   1.000
    C2      C    0.57337   0.52032   0.90639   1.000
    C3      C    0.52378   0.59164   0.57314   1.000
    C4      C    0.92757   0.01861   0.09660   1.000
    C5      C    0.97780   0.09226   0.42943   1.000
    C6      C    0.07250   0.48178   0.59663   1.000
    C7      C    0.02210   0.40781   0.92939   1.000
    C8      C    0.57316   0.02040   0.59365   1.000
    C9      C    0.52404   0.09152   0.92690   1.000
    C10     C    0.42680   0.47966   0.09366   1.000
    C11     C    0.47583   0.40846   0.42701   1.000
    C12     C    0.07213   0.98035   0.90660   1.000
    C13     C    0.02226   0.90849   0.57320   1.000
    C14     C    0.92734   0.51974   0.40685   1.000
    C15     C    0.97752   0.59162   0.07325   1.000
    C16     C    0.25995   0.85974   0.50787   1.000
    C17     C    0.44103   0.19890   0.34828   1.000
    C18     C    0.15212   0.15037   0.33550   1.000
    C19     C    0.27477   0.11070   0.31803   1.000
    C20     C    0.55971   0.22987   0.63860   1.000
    C21     C    0.56497   0.33883   0.59106   1.000
    C22     C    0.73995   0.64027   0.00776   1.000
    C23     C    0.55869   0.30116   0.84831   1.000
    C24     C    0.84776   0.34976   0.83543   1.000
    C25     C    0.72500   0.38926   0.81793   1.000
    C26     C    0.44024   0.27015   0.13862   1.000
    C27     C    0.43494   0.16120   0.09000   1.000
    C28     C    0.76134   0.13911   0.99414   1.000
    C29     C    0.94455   0.79992   0.15265   1.000
    C30     C    0.65163   0.84882   0.16633   1.000
    C31     C    0.77506   0.88733   0.18277   1.000
    C32     C    0.05998   0.77178   0.86147   1.000
    C33     C    0.06615   0.66240   0.90815   1.000
    C34     C    0.23844   0.36103   0.49402   1.000
    C35     C    0.05500   0.70020   0.65287   1.000
    C36     C    0.34851   0.65130   0.66618   1.000
    C37     C    0.22515   0.61274   0.68263   1.000
    C38     C    0.94026   0.72831   0.36122   1.000
    C39     C    0.93479   0.83801   0.40783   1.000
    C40     C    0.73992   0.14035   0.49302   1.000
    C41     C    0.55814   0.80130   0.65196   1.000
    C42     C    0.84701   0.84982   0.66558   1.000
    C43     C    0.72409   0.88899   0.68233   1.000
    C44     C    0.44033   0.77010   0.36137   1.000
    C45     C    0.43497   0.66118   0.40906   1.000
    C46     C    0.25994   0.36004   0.99309   1.000
    C47     C    0.44195   0.69870   0.15192   1.000
    C48     C    0.15267   0.65040   0.16576   1.000
    C49     C    0.27562   0.61118   0.18279   1.000
    C50     C    0.55965   0.72986   0.86142   1.000
    C51     C    0.56504   0.83879   0.90910   1.000
    C52     C    0.23937   0.86054   0.00686   1.000
    C53     C    0.05508   0.19919   0.84997   1.000
    C54     C    0.34763   0.15105   0.83436   1.000
    C55     C    0.22401   0.11266   0.81842   1.000
    C56     C    0.93986   0.22804   0.14117   1.000
    C57     C    0.93350   0.33718   0.09406   1.000
    C58     C    0.76041   0.63960   0.50696   1.000
    C59     C    0.94468   0.30092   0.34997   1.000
    C60     C    0.65224   0.34902   0.33439   1.000
    C61     C    0.77587   0.38742   0.31864   1.000
    C62     C    0.05999   0.27204   0.64126   1.000
    C63     C    0.06629   0.16297   0.59403   1.000
    C64     C    0.42194   0.01326   0.22027   1.000
    C65     C    0.46664   0.91508   0.24406   1.000
    C66     C    0.20132   0.04627   0.40829   1.000
    C67     C    0.22482   0.92138   0.48019   1.000
    C68     C    0.52897   0.22036   0.52303   1.000
    C69     C    0.46951   0.19055   0.40763   1.000
    C70     C    0.57796   0.48674   0.72027   1.000
    C71     C    0.53331   0.58489   0.74404   1.000
    C72     C    0.79859   0.45383   0.90814   1.000
    C73     C    0.77510   0.57868   0.98003   1.000
    C74     C    0.47085   0.27969   0.02300   1.000
    C75     C    0.53023   0.30951   0.90764   1.000
    C76     C    0.92351   0.98493   0.28068   1.000
    C77     C    0.96703   0.08418   0.25835   1.000
    C78     C    0.70120   0.95260   0.09329   1.000
    C79     C    0.72565   0.07760   0.02176   1.000
    C80     C    0.03048   0.78009   0.97726   1.000
    C81     C    0.97236   0.80882   0.09317   1.000
    C82     C    0.07665   0.51509   0.78069   1.000
    C83     C    0.03303   0.41590   0.75829   1.000
    C84     C    0.29881   0.54752   0.59313   1.000
    C85     C    0.27419   0.42254   0.52162   1.000
    C86     C    0.97017   0.72018   0.47706   1.000
    C87     C    0.02756   0.69136   0.59325   1.000
    C88     C    0.57782   0.98675   0.77987   1.000
    C89     C    0.53319   0.08493   0.75605   1.000
    C90     C    0.79814   0.95363   0.59256   1.000
    C91     C    0.77494   0.07870   0.52078   1.000
    C92     C    0.47075   0.77973   0.47706   1.000
    C93     C    0.52982   0.80963   0.59256   1.000
    C94     C    0.42215   0.51322   0.27984   1.000
    C95     C    0.46679   0.41507   0.25605   1.000
    C96     C    0.20162   0.54646   0.09287   1.000
    C97     C    0.22487   0.42160   0.02094   1.000
    C98     C    0.52924   0.72025   0.97700   1.000
    C99     C    0.47023   0.69037   0.09254   1.000
    C100    C    0.07576   0.01570   0.72078   1.000
    C101    C    0.03172   0.91677   0.74412   1.000
    C102    C    0.29858   0.04719   0.90751   1.000
    C103    C    0.27478   0.92209   0.97908   1.000
    C104    C    0.96937   0.21919   0.02542   1.000
    C105    C    0.02746   0.19037   0.90950   1.000
    C106    C    0.92347   0.48366   0.22040   1.000
    C107    C    0.96551   0.58327   0.24388   1.000
    C108    C    0.70121   0.45287   0.40765   1.000
    C109    C    0.72501   0.57800   0.47920   1.000
    C110    C    0.03048   0.28100   0.52540   1.000
    C111    C    0.97231   0.30976   0.40953   1.000
    C112    C    0.27337   0.97961   0.42798   1.000
    C113    C    0.12957   0.94838   0.49296   1.000
    C114    C    0.11377   0.02959   0.44720   1.000
    C115    C    0.21710   0.12099   0.35826   1.000
    C116    C    0.52322   0.12393   0.51624   1.000
    C117    C    0.48428   0.10596   0.44120   1.000
    C118    C    0.49560   0.26418   0.45574   1.000
    C119    C    0.56899   0.26583   0.58662   1.000
    C120    C    0.72649   0.52037   0.92787   1.000
    C121    C    0.87043   0.55182   0.99274   1.000
    C122    C    0.88622   0.47066   0.94699   1.000
    C123    C    0.78279   0.37907   0.85814   1.000
    C124    C    0.47652   0.37612   0.01621   1.000
    C125    C    0.51545   0.39410   0.94119   1.000
    C126    C    0.50418   0.23587   0.95571   1.000
    C127    C    0.43091   0.23421   0.08656   1.000
    C128    C    0.77393   0.01888   0.07367   1.000
    C129    C    0.62995   0.05135   0.00910   1.000
    C130    C    0.61349   0.96995   0.05471   1.000
    C131    C    0.71671   0.87746   0.14298   1.000
    C132    C    0.02394   0.87641   0.98434   1.000
    C133    C    0.98594   0.89366   0.05972   1.000
    C134    C    0.99844   0.73566   0.04471   1.000
    C135    C    0.06998   0.73543   0.91324   1.000
    C136    C    0.22603   0.48129   0.57351   1.000
    C137    C    0.36989   0.44876   0.50900   1.000
    C138    C    0.38644   0.53013   0.55458   1.000
    C139    C    0.28337   0.62268   0.64281   1.000
    C140    C    0.97645   0.62382   0.48419   1.000
    C141    C    0.01397   0.60655   0.55976   1.000
    C142    C    0.00195   0.76455   0.54466   1.000
    C143    C    0.93122   0.76497   0.41294   1.000
    C144    C    0.72612   0.02024   0.57261   1.000
    C145    C    0.87034   0.05187   0.50849   1.000
    C146    C    0.88597   0.97058   0.55414   1.000
    C147    C    0.78208   0.87874   0.64236   1.000
    C148    C    0.47649   0.87616   0.48380   1.000
    C149    C    0.51517   0.89419   0.55891   1.000
    C150    C    0.50389   0.73597   0.54444   1.000
    C151    C    0.43096   0.73419   0.41342   1.000
    C152    C    0.27371   0.48002   0.07280   1.000
    C153    C    0.12941   0.44830   0.00868   1.000
    C154    C    0.11374   0.52945   0.05444   1.000
    C155    C    0.21756   0.62129   0.14278   1.000
    C156    C    0.52349   0.62382   0.98381   1.000
    C157    C    0.48485   0.60580   0.05891   1.000
    C158    C    0.49615   0.76403   0.04445   1.000
    C159    C    0.56900   0.76578   0.91340   1.000
    C160    C    0.22603   0.98084   0.92748   1.000
    C161    C    0.37054   0.94838   0.99121   1.000
    C162    C    0.38663   0.02982   0.94564   1.000
    C163    C    0.28272   0.12234   0.85793   1.000
    C164    C    0.97620   0.12286   0.01854   1.000
    C165    C    0.01415   0.10556   0.94311   1.000
    C166    C    0.00123   0.26358   0.95787   1.000
    C167    C    0.92975   0.26409   0.08920   1.000
    C168    C    0.77372   0.51924   0.42767   1.000
    C169    C    0.62928   0.55166   0.49128   1.000
    C170    C    0.61320   0.47021   0.44572   1.000
    C171    C    0.71712   0.37777   0.35806   1.000
    C172    C    0.02365   0.37733   0.51859   1.000
    C173    C    0.98563   0.39459   0.44310   1.000
    C174    C    0.99858   0.23658   0.45793   1.000
    C175    C    0.07015   0.23604   0.58935   1.000
    C176    C    0.39475   0.06697   0.27613   1.000
    C177    C    0.47538   0.89531   0.31660   1.000
    C178    C    0.41777   0.02959   0.14687   1.000
    C179    C    0.49329   0.85834   0.18975   1.000
    C180    C    0.60505   0.43297   0.77615   1.000
    C181    C    0.52456   0.60464   0.81660   1.000
    C182    C    0.58218   0.47043   0.64687   1.000
    C183    C    0.50668   0.64165   0.68971   1.000
    C184    C    0.89649   0.93247   0.22368   1.000
    C185    C    0.97719   0.10459   0.18601   1.000
    C186    C    0.92002   0.96661   0.35362   1.000
    C187    C    0.99149   0.14111   0.31334   1.000
    C188    C    0.10389   0.56750   0.72373   1.000
    C189    C    0.02289   0.39551   0.68594   1.000
    C190    C    0.08002   0.53343   0.85363   1.000
    C191    C    0.00000   0.35899   0.81325   1.000
    C192    C    0.60480   0.93291   0.72406   1.000
    C193    C    0.52453   0.10469   0.68342   1.000
    C194    C    0.58217   0.97048   0.85329   1.000
    C195    C    0.50655   0.14166   0.81035   1.000
    C196    C    0.39517   0.56708   0.22401   1.000
    C197    C    0.47546   0.39533   0.18343   1.000
    C198    C    0.41776   0.52946   0.35326   1.000
    C199    C    0.49340   0.35833   0.31037   1.000
    C200    C    0.10271   0.06931   0.77692   1.000
    C201    C    0.02301   0.89618   0.81650   1.000
    C202    C    0.07965   0.03266   0.64700   1.000
    C203    C    0.00000   0.86003   0.68955   1.000
    C204    C    0.89726   0.42961   0.27641   1.000
    C205    C    0.97327   0.60408   0.31637   1.000
    C206    C    0.92033   0.46681   0.14707   1.000
    C207    C    0.99123   0.64048   0.18950   1.000
    O208    O    0.25708   0.89131   0.99297   1.000
    O209    O    0.75753   0.60947   0.99389   1.000
    O210    O    0.17714   0.43495   0.01481   1.000
    O211    O    0.12158   0.48888   0.03156   1.000
    O212    O    0.07576   0.42806   0.96903   1.000
    O213    O    0.67780   0.06447   0.01543   1.000
    O214    O    0.62172   0.01065   0.03190   1.000
    O215    O    0.57699   0.07144   0.96800   1.000
    O216    O    0.47369   0.32791   0.01960   1.000
    O217    O    0.45166   0.42789   0.05493   1.000
    O218    O    0.49599   0.38511   0.97870   1.000
    O219    O    0.97279   0.17102   0.02198   1.000
    O220    O    0.95188   0.07074   0.05757   1.000
    O221    O    0.99517   0.11421   0.98082   1.000
    O222    O    0.24929   0.45081   0.04687   1.000
    O223    O    0.24241   0.39082   0.00701   1.000
    O224    O    0.74979   0.04824   0.04771   1.000
    O225    O    0.74350   0.10836   0.00795   1.000
    O226    O    0.45088   0.25695   0.05478   1.000
    O227    O    0.48751   0.25778   0.98935   1.000
    O228    O    0.94956   0.24164   0.05731   1.000
    O229    O    0.98530   0.24138   0.99164   1.000
    O230    O    0.48617   0.83619   0.05879   1.000
    O231    O    0.48319   0.72720   0.06850   1.000
    O232    O    0.51269   0.74214   0.01072   1.000
    O233    O    0.98798   0.66364   0.05898   1.000
    O234    O    0.98540   0.77224   0.06894   1.000
    O235    O    0.01446   0.75788   0.01098   1.000
    O236    O    0.04563   0.56054   0.06384   1.000
    O237    O    0.15768   0.53796   0.07365   1.000
    O238    O    0.54484   0.93916   0.06392   1.000
    O239    O    0.65735   0.96128   0.07400   1.000
    O240    O    0.47754   0.64809   0.07572   1.000
    O241    O    0.45582   0.54273   0.07628   1.000
    O242    O    0.50417   0.61481   0.02136   1.000
    O243    O    0.97915   0.85124   0.07644   1.000
    O244    O    0.95675   0.95614   0.07816   1.000
    O245    O    0.00494   0.88504   0.02203   1.000
    O246    O    0.23766   0.51324   0.08284   1.000
    O247    O    0.35025   0.47984   0.08323   1.000
    O248    O    0.44698   0.96897   0.11000   1.000
    O249    O    0.48474   0.88335   0.13144   1.000
    O250    O    0.42336   0.92837   0.03217   1.000
    O251    O    0.94892   0.52921   0.11016   1.000
    O252    O    0.98438   0.61605   0.13137   1.000
    O253    O    0.92398   0.57172   0.03299   1.000
    O254    O    0.73756   0.98574   0.08348   1.000
    O255    O    0.85075   0.01875   0.08514   1.000
    O256    O    0.43292   0.19771   0.08828   1.000
    O257    O    0.43557   0.25218   0.11259   1.000
    O258    O    0.93163   0.30063   0.09163   1.000
    O259    O    0.93480   0.24607   0.11518   1.000
    O260    O    0.45609   0.69453   0.12223   1.000
    O261    O    0.20959   0.58388   0.11782   1.000
    O262    O    0.95846   0.80437   0.12291   1.000
    O263    O    0.70896   0.91503   0.11814   1.000
    O264    O    0.45113   0.43750   0.13854   1.000
    O265    O    0.95238   0.06160   0.14130   1.000
    O266    O    0.18511   0.63584   0.15427   1.000
    O267    O    0.24659   0.61624   0.16278   1.000
    O268    O    0.68417   0.86314   0.15465   1.000
    O269    O    0.74589   0.88240   0.16287   1.000
    O270    O    0.41985   0.02142   0.18357   1.000
    O271    O    0.92190   0.47523   0.18373   1.000
    O272    O    0.47113   0.40520   0.21974   1.000
    O273    O    0.97211   0.09438   0.22218   1.000
    O274    O    0.97837   0.61187   0.21669   1.000
    O275    O    0.47997   0.88671   0.21690   1.000
    O276    O    0.44429   0.96417   0.23216   1.000
    O277    O    0.40834   0.04011   0.24820   1.000
    O278    O    0.94449   0.53347   0.23214   1.000
    O279    O    0.91037   0.45664   0.24840   1.000
    O280    O    0.91000   0.95870   0.25218   1.000
    O281    O    0.40866   0.54015   0.25192   1.000
    O282    O    0.96939   0.59368   0.28012   1.000
    O283    O    0.47101   0.90520   0.28033   1.000
    O284    O    0.44447   0.46415   0.26794   1.000
    O285    O    0.48010   0.38670   0.28321   1.000
    O286    O    0.94527   0.03455   0.26952   1.000
    O287    O    0.97926   0.11264   0.28584   1.000
    O288    O    0.41996   0.52134   0.31655   1.000
    O289    O    0.92176   0.97577   0.31715   1.000
    O290    O    0.48462   0.38339   0.36869   1.000
    O291    O    0.98464   0.11669   0.37138   1.000
    O292    O    0.95031   0.56191   0.36161   1.000
    O293    O    0.45094   0.93747   0.36149   1.000
    O294    O    0.24593   0.11584   0.33814   1.000
    O295    O    0.74650   0.38260   0.33835   1.000
    O296    O    0.68468   0.36340   0.34623   1.000
    O297    O    0.18461   0.13568   0.34688   1.000
    O298    O    0.45527   0.19472   0.37795   1.000
    O299    O    0.95849   0.30534   0.37975   1.000
    O300    O    0.44680   0.46896   0.39013   1.000
    O301    O    0.94891   0.02944   0.39152   1.000
    O302    O    0.70917   0.41532   0.38286   1.000
    O303    O    0.20921   0.08363   0.38327   1.000
    O304    O    0.93574   0.74664   0.38708   1.000
    O305    O    0.43564   0.75215   0.38739   1.000
    O306    O    0.34994   0.97962   0.41718   1.000
    O307    O    0.45539   0.04280   0.42379   1.000
    O308    O    0.45150   0.92790   0.44509   1.000
    O309    O    0.85053   0.51949   0.41726   1.000
    O310    O    0.95649   0.45717   0.42497   1.000
    O311    O    0.95190   0.57178   0.44552   1.000
    O312    O    0.47689   0.14825   0.42441   1.000
    O313    O    0.48256   0.22736   0.43168   1.000
    O314    O    0.73747   0.48605   0.41766   1.000
    O315    O    0.65721   0.46154   0.42668   1.000
    O316    O    0.93300   0.80149   0.41038   1.000
    O317    O    0.23735   0.01294   0.41813   1.000
    O318    O    0.15755   0.03793   0.42774   1.000
    O319    O    0.43296   0.69769   0.41124   1.000
    O320    O    0.97897   0.35218   0.42631   1.000
    O321    O    0.98545   0.27317   0.43373   1.000
    O322    O    0.95069   0.74257   0.44500   1.000
    O323    O    0.45085   0.75696   0.44524   1.000
    O324    O    0.54452   0.43934   0.43636   1.000
    O325    O    0.48572   0.33632   0.44137   1.000
    O326    O    0.42286   0.42861   0.46800   1.000
    O327    O    0.74936   0.54862   0.45343   1.000
    O328    O    0.24910   0.95050   0.45408   1.000
    O329    O    0.04579   0.06092   0.43831   1.000
    O330    O    0.98819   0.16442   0.44368   1.000
    O331    O    0.92407   0.07207   0.46896   1.000
    O332    O    0.50375   0.11495   0.47872   1.000
    O333    O    0.00464   0.38596   0.48084   1.000
    O334    O    0.62124   0.51093   0.46850   1.000
    O335    O    0.12167   0.98898   0.47008   1.000
    O336    O    0.51229   0.24227   0.48938   1.000
    O337    O    0.01453   0.25879   0.49166   1.000
    O338    O    0.47362   0.82795   0.48043   1.000
    O339    O    0.48732   0.75785   0.51075   1.000
    O340    O    0.97331   0.67200   0.48062   1.000
    O341    O    0.98606   0.74236   0.51086   1.000
    O342    O    0.67714   0.56483   0.48524   1.000
    O343    O    0.74271   0.60880   0.49308   1.000
    O344    O    0.17719   0.93488   0.48657   1.000
    O345    O    0.24238   0.89057   0.49403   1.000
    O346    O    0.49583   0.88517   0.52135   1.000
    O347    O    0.99521   0.61518   0.52197   1.000
    O348    O    0.57653   0.57165   0.53221   1.000
    O349    O    0.07592   0.92844   0.53308   1.000
    O350    O    0.75743   0.10952   0.50690   1.000
    O351    O    0.25631   0.39178   0.50782   1.000
    O352    O    0.82264   0.06528   0.51464   1.000
    O353    O    0.87816   0.01123   0.53131   1.000
    O354    O    0.32204   0.43565   0.51531   1.000
    O355    O    0.37817   0.48945   0.53179   1.000
    O356    O    0.52610   0.17215   0.51963   1.000
    O357    O    0.54819   0.07217   0.55494   1.000
    O358    O    0.02706   0.32917   0.52199   1.000
    O359    O    0.04807   0.42956   0.55761   1.000
    O360    O    0.75053   0.04947   0.54669   1.000
    O361    O    0.25011   0.45191   0.54756   1.000
    O362    O    0.54898   0.24309   0.55482   1.000
    O363    O    0.05031   0.25852   0.55737   1.000
    O364    O    0.51383   0.66380   0.55879   1.000
    O365    O    0.51685   0.77280   0.56850   1.000
    O366    O    0.01210   0.83652   0.55893   1.000
    O367    O    0.01475   0.72796   0.56896   1.000
    O368    O    0.95412   0.93954   0.56367   1.000
    O369    O    0.84206   0.96211   0.57335   1.000
    O370    O    0.45511   0.56089   0.56386   1.000
    O371    O    0.34262   0.53883   0.57385   1.000
    O372    O    0.52249   0.85191   0.57573   1.000
    O373    O    0.54416   0.95729   0.57628   1.000
    O374    O    0.02076   0.64895   0.57650   1.000
    O375    O    0.04323   0.54416   0.57820   1.000
    O376    O    0.76213   0.98694   0.58258   1.000
    O377    O    0.64964   0.02032   0.58313   1.000
    O378    O    0.55298   0.53104   0.61000   1.000
    O379    O    0.51523   0.61665   0.63143   1.000
    O380    O    0.05096   0.97058   0.61010   1.000
    O381    O    0.01113   0.88426   0.63137   1.000
    O382    O    0.26242   0.51441   0.58332   1.000
    O383    O    0.14926   0.48153   0.58507   1.000
    O384    O    0.56698   0.30233   0.58884   1.000
    O385    O    0.56435   0.24785   0.61261   1.000
    O386    O    0.06822   0.19950   0.59169   1.000
    O387    O    0.06507   0.25404   0.61530   1.000
    O388    O    0.54398   0.80546   0.62226   1.000
    O389    O    0.79011   0.91619   0.61746   1.000
    O390    O    0.29109   0.58510   0.61797   1.000
    O391    O    0.04128   0.69578   0.62306   1.000
    O392    O    0.54885   0.06255   0.63853   1.000
    O393    O    0.04770   0.43864   0.64128   1.000
    O394    O    0.81455   0.86428   0.65397   1.000
    O395    O    0.75309   0.88386   0.66234   1.000
    O396    O    0.31594   0.63699   0.65449   1.000
    O397    O    0.25426   0.61771   0.66272   1.000
    O398    O    0.58007   0.47859   0.68357   1.000
    O399    O    0.07771   0.02418   0.68389   1.000
    O400    O    0.52886   0.09481   0.71973   1.000
    O401    O    0.02796   0.40571   0.72211   1.000
    O402    O    0.01586   0.88840   0.71683   1.000
    O403    O    0.51999   0.61327   0.71688   1.000
    O404    O    0.55563   0.53582   0.73215   1.000
    O405    O    0.59151   0.45985   0.74821   1.000
    O406    O    0.05374   0.96624   0.73245   1.000
    O407    O    0.08923   0.04250   0.74885   1.000
    O408    O    0.09027   0.54129   0.75221   1.000
    O409    O    0.59131   0.95983   0.75196   1.000
    O410    O    0.52893   0.59477   0.78032   1.000
    O411    O    0.02736   0.90647   0.78031   1.000
    O412    O    0.55551   0.03584   0.76796   1.000
    O413    O    0.51987   0.11330   0.78320   1.000
    O414    O    0.05484   0.46550   0.76949   1.000
    O415    O    0.01651   0.38745   0.78577   1.000
    O416    O    0.57999   0.97862   0.81658   1.000
    O417    O    0.07833   0.52426   0.81716   1.000
    O418    O    0.51529   0.11659   0.86862   1.000
    O419    O    0.01105   0.38340   0.87132   1.000
    O420    O    0.04757   0.93826   0.86155   1.000
    O421    O    0.54896   0.56248   0.86149   1.000
    O422    O    0.75390   0.38417   0.83803   1.000
    O423    O    0.25337   0.11750   0.83817   1.000
    O424    O    0.31518   0.13670   0.84614   1.000
    O425    O    0.81528   0.36441   0.84678   1.000
    O426    O    0.54446   0.30534   0.87797   1.000
    O427    O    0.04127   0.19478   0.87973   1.000
    O428    O    0.55310   0.03101   0.89009   1.000
    O429    O    0.05106   0.47062   0.89151   1.000
    O430    O    0.29065   0.08477   0.88272   1.000
    O431    O    0.79069   0.41645   0.88314   1.000
    O432    O    0.56433   0.74782   0.88741   1.000
    O433    O    0.06498   0.75361   0.88736   1.000
    O434    O    0.64993   0.52035   0.91713   1.000
    O435    O    0.54441   0.45721   0.92379   1.000
    O436    O    0.54843   0.57207   0.94510   1.000
    O437    O    0.14908   0.98060   0.91704   1.000
    O438    O    0.04314   0.04296   0.92485   1.000
    O439    O    0.04803   0.92838   0.94547   1.000
    O440    O    0.26231   0.01402   0.91749   1.000
    O441    O    0.34260   0.03850   0.92657   1.000
    O442    O    0.52284   0.35181   0.92441   1.000
    O443    O    0.51720   0.27269   0.93167   1.000
    O444    O    0.76254   0.48710   0.91800   1.000
    O445    O    0.84240   0.46224   0.92756   1.000
    O446    O    0.06806   0.69892   0.91069   1.000
    O447    O    0.56702   0.80229   0.91125   1.000
    O448    O    0.02080   0.14796   0.92630   1.000
    O449    O    0.01434   0.22697   0.93368   1.000
    O450    O    0.05023   0.75776   0.94525   1.000
    O451    O    0.54912   0.74302   0.94520   1.000
    O452    O    0.45533   0.06067   0.93627   1.000
    O453    O    0.51411   0.16370   0.94130   1.000
    O454    O    0.25041   0.95146   0.95328   1.000
    O455    O    0.75080   0.54952   0.95395   1.000
    O456    O    0.95416   0.43924   0.93819   1.000
    O457    O    0.01167   0.33570   0.94363   1.000
    O458    O    0.37859   0.98910   0.96843   1.000
    O459    O    0.87832   0.51124   0.96986   1.000
    O460    O    0.52636   0.67204   0.98040   1.000
    O461    O    0.02721   0.82825   0.98080   1.000
    O462    O    0.32266   0.93523   0.98514   1.000
    O463    O    0.82276   0.56525   0.98638   1.000
loop_
    _geom_bond_atom_site_label_1
    _geom_bond_atom_site_label_2
    _geom_bond_distance
    _geom_bond_site_symmetry_2
    _ccdc_geom_bond_type
    C52    O208      0.54240  1_554   S
    C103   O208      0.54240      .   S
    C22    O209      0.54250  1_554   S
    C73    O209      0.54250      .   S
    C153   O210      0.66231      .   S
    C97    O210      0.66231      .   S
    C153   O211      0.69516      .   S
    C154   O211      0.69516      .   S
    C153   O212      1.01404  1_554   S
    C7     O212      1.01404      .   S
    C129   O213      0.66275      .   S
    C79    O213      0.66275      .   S
    C129   O214      0.69626      .   S
    C130   O214      0.69626  1_565   S
    C129   O215      1.02455  1_554   S
    C9     O215      1.02455      .   S
    C124   O216      0.67694      .   S
    C74    O216      0.67694      .   S
    C124   O217      1.03138      .   S
    C10    O217      1.03138      .   S
    C124   O218      0.69808  1_554   S
    C125   O218      0.69808      .   S
    C164   O219      0.67692      .   S
    C104   O219      0.67692      .   S
    C164   O220      1.03496      .   S
    C4     O220      1.03496      .   S
    C164   O221      0.69830  1_554   S
    C165   O221      0.69830  1_455   S
    C97    O222      0.68011      .   S
    C152   O222      0.68011      .   S
    C97    O223      0.54246      .   S
    C46    O223      0.54246  1_556   S
    C79    O224      0.68071      .   S
    C128   O224      0.68071      .   S
    C79    O225      0.54239      .   S
    C28    O225      0.54239  1_556   S
    C74    O226      0.67902      .   S
    C127   O226      0.67902      .   S
    C74    O227      0.68467  1_554   S
    C126   O227      0.68467      .   S
    C104   O228      0.67834      .   S
    C167   O228      0.67834      .   S
    C104   O229      0.68489  1_554   S
    C166   O229      0.68489  1_455   S
    C158   O230      1.04565      .   S
    C1     O230      1.04565      .   S
    C158   O231      0.67842      .   S
    C99    O231      0.67842      .   S
    C158   O232      0.68517      .   S
    C98    O232      0.68517  1_556   S
    C134   O233      1.04370      .   S
    C15    O233      1.04370      .   S
    C134   O234      0.67854      .   S
    C81    O234      0.67854      .   S
    C134   O235      0.68466  1_655   S
    C80    O235      0.68466  1_556   S
    C154   O236      1.00765      .   S
    C15    O236      1.00765  1_655   S
    C154   O237      0.67293      .   S
    C96    O237      0.67293      .   S
    C130   O238      1.01022      .   S
    C1     O238      1.01022      .   S
    C130   O239      0.67347      .   S
    C78    O239      0.67347      .   S
    C157   O240      0.66333      .   S
    C99    O240      0.66333      .   S
    C157   O241      1.00364      .   S
    C10    O241      1.00364      .   S
    C157   O242      0.69808      .   S
    C156   O242      0.69808  1_556   S
    C133   O243      0.66305      .   S
    C81    O243      0.66305      .   S
    C133   O244      1.00406      .   S
    C4     O244      1.00406  1_545   S
    C133   O245      0.69798  1_655   S
    C132   O245      0.69798  1_556   S
    C152   O246      0.68509      .   S
    C96    O246      0.68509      .   S
    C152   O247      1.02027      .   S
    C10    O247      1.02027      .   S
    C1     O248      1.12163      .   S
    C178   O248      1.12163  1_545   S
    C1     O249      1.05636      .   S
    C179   O249      1.05636      .   S
    C1     O250      1.02148      .   S
    C161   O250      1.02148  1_556   S
    C15    O251      1.13717      .   S
    C206   O251      1.13717      .   S
    C15    O252      1.04858      .   S
    C207   O252      1.04858      .   S
    C15    O253      1.01864      .   S
    C121   O253      1.01864  1_556   S
    C128   O254      0.68498  1_545   S
    C78    O254      0.68498      .   S
    C128   O255      1.02698      .   S
    C4     O255      1.02698      .   S
    C127   O256      0.51149      .   S
    C27    O256      0.51149      .   S
    C127   O257      0.51209      .   S
    C26    O257      0.51209      .   S
    C167   O258      0.51266      .   S
    C57    O258      0.51266      .   S
    C167   O259      0.51259      .   S
    C56    O259      0.51259      .   S
    C99    O260      0.54081      .   S
    C47    O260      0.54081      .   S
    C96    O261      0.68089      .   S
    C155   O261      0.68089      .   S
    C81    O262      0.54091      .   S
    C29    O262      0.54091      .   S
    C78    O263      0.68129      .   S
    C131   O263      0.68129      .   S
    C10    O264      1.01533      .   S
    C197   O264      1.01533      .   S
    C4     O265      1.02098      .   S
    C185   O265      1.02098      .   S
    C155   O266      0.51125      .   S
    C48    O266      0.51125      .   S
    C155   O267      0.51541      .   S
    C49    O267      0.51541      .   S
    C131   O268      0.51150      .   S
    C30    O268      0.51150      .   S
    C131   O269      0.51517      .   S
    C31    O269      0.51517      .   S
    C178   O270      0.63447      .   S
    C64    O270      0.63447      .   S
    C206   O271      0.63428      .   S
    C106   O271      0.63428      .   S
    C197   O272      0.63475      .   S
    C95    O272      0.63475      .   S
    C185   O273      0.63439      .   S
    C77    O273      0.63439      .   S
    C207   O274      0.63354      .   S
    C107   O274      0.63354      .   S
    C179   O275      0.63317      .   S
    C65    O275      0.63317      .   S
    C64    O276      0.77323  1_545   S
    C65    O276      0.77323      .   S
    C64    O277      0.63101      .   S
    C176   O277      0.63101      .   S
    C106   O278      0.77401      .   S
    C107   O278      0.77401      .   S
    C106   O279      0.63117      .   S
    C204   O279      0.63117      .   S
    C184   O280      0.63228      .   S
    C76    O280      0.63228      .   S
    C196   O281      0.63083      .   S
    C94    O281      0.63083      .   S
    C107   O282      0.63470      .   S
    C205   O282      0.63470      .   S
    C65    O283      0.63409      .   S
    C177   O283      0.63409      .   S
    C95    O284      0.77304      .   S
    C94    O284      0.77304      .   S
    C95    O285      0.63301      .   S
    C199   O285      0.63301      .   S
    C77    O286      0.77290      .   S
    C76    O286      0.77290  1_565   S
    C77    O287      0.63383      .   S
    C187   O287      0.63383      .   S
    C94    O288      0.63461      .   S
    C198   O288      0.63461      .   S
    C76    O289      0.63312      .   S
    C186   O289      0.63312      .   S
    C199   O290      1.05740      .   S
    C11    O290      1.05740      .   S
    C187   O291      1.04740      .   S
    C5     O291      1.04740      .   S
    C205   O292      1.01405      .   S
    C14    O292      1.01405      .   S
    C177   O293      1.01619      .   S
    C0     O293      1.01619      .   S
    C19    O294      0.51532      .   S
    C115   O294      0.51532      .   S
    C61    O295      0.51528      .   S
    C171   O295      0.51528      .   S
    C60    O296      0.51150      .   S
    C171   O296      0.51150      .   S
    C18    O297      0.51155      .   S
    C115   O297      0.51155      .   S
    C17    O298      0.54079      .   S
    C69    O298      0.54079      .   S
    C59    O299      0.54086      .   S
    C111   O299      0.54086      .   S
    C198   O300      1.11933      .   S
    C11    O300      1.11933      .   S
    C186   O301      1.15199  1_565   S
    C5     O301      1.15199      .   S
    C171   O302      0.68101      .   S
    C108   O302      0.68101      .   S
    C115   O303      0.68087      .   S
    C66    O303      0.68087      .   S
    C38    O304      0.51207      .   S
    C143   O304      0.51207      .   S
    C44    O305      0.51205      .   S
    C151   O305      0.51205      .   S
    C0     O306      1.02193      .   S
    C112   O306      1.02193      .   S
    C0     O307      1.00406  1_565   S
    C117   O307      1.00406      .   S
    C0     O308      1.03112      .   S
    C148   O308      1.03112      .   S
    C14    O309      1.02393      .   S
    C168   O309      1.02393      .   S
    C14    O310      1.00322      .   S
    C173   O310      1.00322      .   S
    C14    O311      1.03087      .   S
    C140   O311      1.03087      .   S
    C69    O312      0.66331      .   S
    C117   O312      0.66331      .   S
    C69    O313      0.67851      .   S
    C118   O313      0.67851      .   S
    C108   O314      0.68500      .   S
    C168   O314      0.68500      .   S
    C108   O315      0.67351      .   S
    C170   O315      0.67351      .   S
    C39    O316      0.51245      .   S
    C143   O316      0.51245      .   S
    C66    O317      0.68500      .   S
    C112   O317      0.68500  1_565   S
    C66    O318      0.67312      .   S
    C114   O318      0.67312      .   S
    C45    O319      0.51200      .   S
    C151   O319      0.51200      .   S
    C111   O320      0.66314      .   S
    C173   O320      0.66314      .   S
    C111   O321      0.67846      .   S
    C174   O321      0.67846      .   S
    C143   O322      0.67826      .   S
    C86    O322      0.67826      .   S
    C151   O323      0.67906      .   S
    C92    O323      0.67906      .   S
    C11    O324      1.01117      .   S
    C170   O324      1.01117      .   S
    C11    O325      1.04522      .   S
    C118   O325      1.04522      .   S
    C11    O326      1.02446      .   S
    C137   O326      1.02446      .   S
    C168   O327      0.68050      .   S
    C109   O327      0.68050      .   S
    C112   O328      0.68071      .   S
    C67    O328      0.68071      .   S
    C5     O329      1.00620  1_655   S
    C114   O329      1.00620      .   S
    C5     O330      1.04530      .   S
    C174   O330      1.04530      .   S
    C5     O331      1.01398      .   S
    C145   O331      1.01398      .   S
    C117   O332      0.69792      .   S
    C116   O332      0.69792      .   S
    C173   O333      0.69851  1_655   S
    C172   O333      0.69851      .   S
    C170   O334      0.69584      .   S
    C169   O334      0.69584      .   S
    C114   O335      0.69549  1_545   S
    C113   O335      0.69549      .   S
    C118   O336      0.68446      .   S
    C68    O336      0.68446      .   S
    C174   O337      0.68421  1_655   S
    C110   O337      0.68421      .   S
    C92    O338      0.67687      .   S
    C148   O338      0.67687      .   S
    C92    O339      0.68444      .   S
    C150   O339      0.68444      .   S
    C86    O340      0.67709      .   S
    C140   O340      0.67709      .   S
    C86    O341      0.68475      .   S
    C142   O341      0.68475  1_455   S
    C109   O342      0.66246      .   S
    C169   O342      0.66246      .   S
    C109   O343      0.54241      .   S
    C58    O343      0.54241      .   S
    C67    O344      0.66241      .   S
    C113   O344      0.66241      .   S
    C67    O345      0.54237      .   S
    C16    O345      0.54237      .   S
    C148   O346      0.69788      .   S
    C149   O346      0.69788      .   S
    C140   O347      0.69799      .   S
    C141   O347      0.69799  1_455   S
    C169   O348      1.02113      .   S
    C3     O348      1.02113      .   S
    C113   O349      1.01900      .   S
    C13    O349      1.01900      .   S
    C40    O350      0.54239      .   S
    C91    O350      0.54239      .   S
    C34    O351      0.54236      .   S
    C85    O351      0.54236      .   S
    C145   O352      0.66236      .   S
    C91    O352      0.66236      .   S
    C145   O353      0.69532      .   S
    C146   O353      0.69532  1_565   S
    C137   O354      0.66275      .   S
    C85    O354      0.66275      .   S
    C137   O355      0.69600      .   S
    C138   O355      0.69600      .   S
    C116   O356      0.67690      .   S
    C68    O356      0.67690      .   S
    C116   O357      1.03124      .   S
    C8     O357      1.03124      .   S
    C172   O358      0.67687      .   S
    C110   O358      0.67687      .   S
    C172   O359      1.03596      .   S
    C6     O359      1.03596      .   S
    C91    O360      0.68039      .   S
    C144   O360      0.68039      .   S
    C85    O361      0.68073      .   S
    C136   O361      0.68073      .   S
    C68    O362      0.67904      .   S
    C119   O362      0.67904      .   S
    C110   O363      0.67946      .   S
    C175   O363      0.67946      .   S
    C150   O364      1.04554      .   S
    C3     O364      1.04554      .   S
    C150   O365      0.67843      .   S
    C93    O365      0.67843      .   S
    C142   O366      1.04244      .   S
    C13    O366      1.04244      .   S
    C142   O367      0.67838      .   S
    C87    O367      0.67838      .   S
    C146   O368      1.00794      .   S
    C13    O368      1.00794  1_455   S
    C146   O369      0.67304      .   S
    C90    O369      0.67304      .   S
    C138   O370      1.01007      .   S
    C3     O370      1.01007      .   S
    C138   O371      0.67343      .   S
    C84    O371      0.67343      .   S
    C149   O372      0.66334      .   S
    C93    O372      0.66334      .   S
    C149   O373      1.00372      .   S
    C8     O373      1.00372  1_545   S
    C141   O374      0.66300      .   S
    C87    O374      0.66300      .   S
    C141   O375      1.00314      .   S
    C6     O375      1.00314      .   S
    C144   O376      0.68511  1_545   S
    C90    O376      0.68511      .   S
    C144   O377      1.01999      .   S
    C8     O377      1.01999      .   S
    C3     O378      1.12110      .   S
    C182   O378      1.12110      .   S
    C3     O379      1.05621      .   S
    C183   O379      1.05621      .   S
    C13    O380      1.13375      .   S
    C202   O380      1.13375  1_545   S
    C13    O381      1.05494      .   S
    C203   O381      1.05494      .   S
    C136   O382      0.68481      .   S
    C84    O382      0.68481      .   S
    C136   O383      1.02689      .   S
    C6     O383      1.02689      .   S
    C119   O384      0.51204      .   S
    C21    O384      0.51204      .   S
    C119   O385      0.51159      .   S
    C20    O385      0.51159      .   S
    C175   O386      0.51249      .   S
    C63    O386      0.51249      .   S
    C175   O387      0.51209      .   S
    C62    O387      0.51209      .   S
    C93    O388      0.54080      .   S
    C41    O388      0.54080      .   S
    C90    O389      0.68084      .   S
    C147   O389      0.68084      .   S
    C84    O390      0.68134      .   S
    C139   O390      0.68134      .   S
    C87    O391      0.54090      .   S
    C35    O391      0.54090      .   S
    C8     O392      1.01550      .   S
    C193   O392      1.01550      .   S
    C6     O393      1.02191      .   S
    C189   O393      1.02191      .   S
    C147   O394      0.51148      .   S
    C42    O394      0.51148      .   S
    C147   O395      0.51537      .   S
    C43    O395      0.51537      .   S
    C139   O396      0.51154      .   S
    C36    O396      0.51154      .   S
    C139   O397      0.51514      .   S
    C37    O397      0.51514      .   S
    C182   O398      0.63448      .   S
    C70    O398      0.63448      .   S
    C202   O399      0.63838      .   S
    C100   O399      0.63838      .   S
    C193   O400      0.63477      .   S
    C89    O400      0.63477      .   S
    C189   O401      0.63432      .   S
    C83    O401      0.63432      .   S
    C203   O402      0.64406      .   S
    C101   O402      0.64406      .   S
    C183   O403      0.63314      .   S
    C71    O403      0.63314      .   S
    C70    O404      0.77308      .   S
    C71    O404      0.77308      .   S
    C70    O405      0.63098      .   S
    C180   O405      0.63098      .   S
    C100   O406      0.77437  1_545   S
    C101   O406      0.77437      .   S
    C100   O407      0.63125      .   S
    C200   O407      0.63125      .   S
    C188   O408      0.63240      .   S
    C82    O408      0.63240      .   S
    C192   O409      0.63082      .   S
    C88    O409      0.63082      .   S
    C71    O410      0.63432      .   S
    C181   O410      0.63432      .   S
    C101   O411      0.63407      .   S
    C201   O411      0.63407      .   S
    C89    O412      0.77319      .   S
    C88    O412      0.77319  1_565   S
    C89    O413      0.63305      .   S
    C195   O413      0.63305      .   S
    C83    O414      0.77279      .   S
    C82    O414      0.77279      .   S
    C83    O415      0.65023      .   S
    C191   O415      0.65023      .   S
    C88    O416      0.63459      .   S
    C194   O416      0.63459      .   S
    C82    O417      0.63309      .   S
    C190   O417      0.63309      .   S
    C195   O418      1.05644      .   S
    C9     O418      1.05644      .   S
    C191   O419      1.05370      .   S
    C7     O419      1.05370      .   S
    C201   O420      1.01699      .   S
    C12    O420      1.01699      .   S
    C181   O421      1.01575      .   S
    C2     O421      1.01575      .   S
    C25    O422      0.51531      .   S
    C123   O422      0.51531      .   S
    C55    O423      0.51519      .   S
    C163   O423      0.51519      .   S
    C54    O424      0.51148      .   S
    C163   O424      0.51148      .   S
    C24    O425      0.51137      .   S
    C123   O425      0.51137      .   S
    C23    O426      0.54086      .   S
    C75    O426      0.54086      .   S
    C53    O427      0.54084      .   S
    C105   O427      0.54084      .   S
    C194   O428      1.11940  1_565   S
    C9     O428      1.11940      .   S
    C190   O429      1.15218      .   S
    C7     O429      1.15218      .   S
    C163   O430      0.68111      .   S
    C102   O430      0.68111      .   S
    C123   O431      0.68084      .   S
    C72    O431      0.68084      .   S
    C50    O432      0.51145      .   S
    C159   O432      0.51145      .   S
    C32    O433      0.51203      .   S
    C135   O433      0.51203      .   S
    C2     O434      1.02135      .   S
    C120   O434      1.02135      .   S
    C2     O435      1.00395      .   S
    C125   O435      1.00395      .   S
    C2     O436      1.03136      .   S
    C156   O436      1.03136      .   S
    C12    O437      1.02550      .   S
    C160   O437      1.02550      .   S
    C12    O438      1.00372  1_565   S
    C165   O438      1.00372      .   S
    C12    O439      1.03085      .   S
    C132   O439      1.03085      .   S
    C102   O440      0.68522      .   S
    C160   O440      0.68522  1_565   S
    C102   O441      0.67355      .   S
    C162   O441      0.67355      .   S
    C75    O442      0.66334      .   S
    C125   O442      0.66334      .   S
    C75    O443      0.67845      .   S
    C126   O443      0.67845      .   S
    C72    O444      0.68489      .   S
    C120   O444      0.68489      .   S
    C72    O445      0.67306      .   S
    C122   O445      0.67306      .   S
    C33    O446      0.51252      .   S
    C135   O446      0.51252      .   S
    C51    O447      0.51197      .   S
    C159   O447      0.51197      .   S
    C105   O448      0.66320      .   S
    C165   O448      0.66320      .   S
    C105   O449      0.67853      .   S
    C166   O449      0.67853      .   S
    C135   O450      0.67886      .   S
    C80    O450      0.67886      .   S
    C159   O451      0.67901      .   S
    C98    O451      0.67901      .   S
    C9     O452      1.01154      .   S
    C162   O452      1.01154      .   S
    C9     O453      1.04590      .   S
    C126   O453      1.04590      .   S
    C160   O454      0.68063      .   S
    C103   O454      0.68063      .   S
    C120   O455      0.68061      .   S
    C73    O455      0.68061      .   S
    C7     O456      1.00618  1_455   S
    C122   O456      1.00618      .   S
    C7     O457      1.04484      .   S
    C166   O457      1.04484      .   S
    C162   O458      0.69597  1_545   S
    C161   O458      0.69597      .   S
    C122   O459      0.69531      .   S
    C121   O459      0.69531      .   S
    C98    O460      0.67697      .   S
    C156   O460      0.67697      .   S
    C80    O461      0.67684      .   S
    C132   O461      0.67684      .   S
    C103   O462      0.66247      .   S
    C161   O462      0.66247      .   S
    C73    O463      0.66238      .   S
    C121   O463      0.66238      .   S
