# CIF file generated by openbabel 2.4.90, see http://openbabel.sf.net
data_I
_chemical_name_common ''
_cell_length_a 20.75
_cell_length_b 25.128
_cell_length_c 20.218
_cell_angle_alpha 90.024
_cell_angle_beta 89.988
_cell_angle_gamma 90.036
_space_group_name_H-M_alt 'P 1'
_space_group_name_Hall 'P 1'
loop_
    _symmetry_equiv_pos_as_xyz
    x,y,z
loop_
    _atom_site_label
    _atom_site_type_symbol
    _atom_site_fract_x
    _atom_site_fract_y
    _atom_site_fract_z
    _atom_site_occupancy
    H0      H    0.47530   0.23484   0.82313   1.000
    H1      H    0.47530   0.73487   0.82310   1.000
    H2      H    0.97530   0.23484   0.82313   1.000
    H3      H    0.97530   0.73487   0.82310   1.000
    H4      H    0.27995   0.29104   0.81866   1.000
    H5      H    0.28001   0.79119   0.81860   1.000
    H6      H    0.77996   0.29105   0.81860   1.000
    H7      H    0.78001   0.79119   0.81860   1.000
    H8      H    0.46753   0.21030   0.70296   1.000
    H9      H    0.46753   0.71032   0.70294   1.000
    H10     H    0.96753   0.21030   0.70296   1.000
    H11     H    0.96753   0.71032   0.70294   1.000
    H12     H    0.27232   0.26683   0.69859   1.000
    H13     H    0.27238   0.76699   0.69853   1.000
    H14     H    0.77232   0.26684   0.69858   1.000
    H15     H    0.77238   0.76699   0.69853   1.000
    H16     H    0.35960   0.48548   0.00000   1.000
    H17     H    0.35959   0.98549   0.00000   1.000
    H18     H    0.85960   0.48548   0.00000   1.000
    H19     H    0.85959   0.98549   0.00000   1.000
    H20     H    0.31088   0.48098   0.88732   1.000
    H21     H    0.31088   0.98097   0.88730   1.000
    H22     H    0.81089   0.48098   0.88732   1.000
    H23     H    0.81088   0.98097   0.88730   1.000
    H24     H    0.39693   0.47985   0.88330   1.000
    H25     H    0.39692   0.97983   0.88330   1.000
    H26     H    0.89693   0.47985   0.88336   1.000
    H27     H    0.89692   0.97983   0.88332   1.000
    H28     H    0.35164   0.41983   0.87230   1.000
    H29     H    0.35163   0.91981   0.87229   1.000
    H30     H    0.85164   0.41983   0.87230   1.000
    H31     H    0.85163   0.91981   0.87229   1.000
    H32     H    0.27460   0.26512   0.32314   1.000
    H33     H    0.27462   0.76516   0.32315   1.000
    H34     H    0.77460   0.26512   0.32314   1.000
    H35     H    0.77462   0.76516   0.32315   1.000
    H36     H    0.47009   0.20925   0.31867   1.000
    H37     H    0.47007   0.70922   0.31865   1.000
    H38     H    0.97009   0.20925   0.31867   1.000
    H39     H    0.97007   0.70922   0.31865   1.000
    H40     H    0.28239   0.28966   0.20299   1.000
    H41     H    0.28240   0.78971   0.20300   1.000
    H42     H    0.78239   0.28966   0.20299   1.000
    H43     H    0.78240   0.78971   0.20300   1.000
    H44     H    0.47774   0.23346   0.19862   1.000
    H45     H    0.47772   0.73342   0.19860   1.000
    H46     H    0.97774   0.23346   0.19862   1.000
    H47     H    0.97772   0.73342   0.19860   1.000
    H48     H    0.39077   0.01480   0.50002   1.000
    H49     H    0.39076   0.51481   0.50003   1.000
    H50     H    0.89077   0.01480   0.50002   1.000
    H51     H    0.89076   0.51481   0.50003   1.000
    H52     H    0.43856   0.01901   0.38616   1.000
    H53     H    0.43855   0.51900   0.38617   1.000
    H54     H    0.93856   0.01901   0.38616   1.000
    H55     H    0.93855   0.51900   0.38617   1.000
    H56     H    0.35246   0.01980   0.38290   1.000
    H57     H    0.35245   0.51979   0.38292   1.000
    H58     H    0.85246   0.01980   0.38290   1.000
    H59     H    0.85245   0.51979   0.38292   1.000
    H60     H    0.39735   0.07994   0.37112   1.000
    H61     H    0.39733   0.57993   0.37112   1.000
    H62     H    0.89735   0.07994   0.37112   1.000
    H63     H    0.89733   0.57993   0.37112   1.000
    H64     H    0.02439   0.48480   0.67707   1.000
    H65     H    0.02428   0.98509   0.67718   1.000
    H66     H    0.52439   0.48480   0.67707   1.000
    H67     H    0.52428   0.98509   0.67718   1.000
    C68     C    0.85677   0.94719   0.97400   1.000
    C69     C    0.35407   0.45773   0.89936   1.000
    C70     C    0.35405   0.95771   0.89930   1.000
    C71     C    0.85406   0.45773   0.89930   1.000
    H72     H    0.22001   0.04059   0.68108   1.000
    H73     H    0.21993   0.54075   0.68110   1.000
    H74     H    0.72001   0.04059   0.68108   1.000
    H75     H    0.71993   0.54074   0.68113   1.000
    H76     H    0.03240   0.46015   0.79710   1.000
    H77     H    0.03229   0.96045   0.79728   1.000
    H78     H    0.53240   0.46015   0.79710   1.000
    H79     H    0.53229   0.96045   0.79728   1.000
    H80     H    0.22790   0.01628   0.80100   1.000
    H81     H    0.22783   0.51640   0.80112   1.000
    H82     H    0.72790   0.01628   0.80100   1.000
    H83     H    0.72783   0.51640   0.80112   1.000
    H84     H    0.14093   0.23521   0.50001   1.000
    H85     H    0.14093   0.73521   0.49993   1.000
    H86     H    0.64093   0.23521   0.50001   1.000
    H87     H    0.64093   0.73521   0.49993   1.000
    H88     H    0.18883   0.23086   0.61383   1.000
    H89     H    0.18882   0.73095   0.61376   1.000
    H90     H    0.68883   0.23086   0.61383   1.000
    H91     H    0.68882   0.73095   0.61376   1.000
    H92     H    0.10273   0.23027   0.61715   1.000
    H93     H    0.10272   0.73036   0.61707   1.000
    H94     H    0.60273   0.23027   0.61715   1.000
    H95     H    0.60272   0.73036   0.61707   1.000
    H96     H    0.14734   0.17003   0.62887   1.000
    H97     H    0.14732   0.67013   0.62887   1.000
    H98     H    0.64734   0.17003   0.62887   1.000
    H99     H    0.64732   0.67013   0.62887   1.000
    C100    C    0.06871   0.49144   0.70468   1.000
    C101    C    0.06864   0.99164   0.70476   1.000
    C102    C    0.56871   0.49144   0.70468   1.000
    C103    C    0.56864   0.99164   0.70476   1.000
    C104    C    0.17923   0.02303   0.70703   1.000
    H105    H    0.22540   0.01515   0.17695   1.000
    H106    H    0.22535   0.51525   0.17691   1.000
    H107    H    0.72540   0.01515   0.17695   1.000
    H108    H    0.72535   0.51525   0.17691   1.000
    H109    H    0.02986   0.45919   0.18126   1.000
    H110    H    0.02983   0.95927   0.18124   1.000
    H111    H    0.52986   0.45919   0.18126   1.000
    H112    H    0.52983   0.95927   0.18124   1.000
    H113    H    0.21757   0.03968   0.29713   1.000
    H114    H    0.21753   0.53977   0.29709   1.000
    H115    H    0.71757   0.03968   0.29713   1.000
    H116    H    0.71753   0.53978   0.29709   1.000
    H117    H    0.02217   0.48338   0.30135   1.000
    H118    H    0.02213   0.98346   0.30132   1.000
    H119    H    0.52217   0.48338   0.30135   1.000
    H120    H    0.52213   0.98346   0.30132   1.000
    H121    H    0.10914   0.26477   0.99985   1.000
    H122    H    0.10913   0.76477   0.00000   1.000
    H123    H    0.60914   0.26477   0.99985   1.000
    H124    H    0.60913   0.76477   0.00000   1.000
    H125    H    0.06105   0.26911   0.11360   1.000
    H126    H    0.06104   0.76928   0.11374   1.000
    H127    H    0.56105   0.26911   0.11360   1.000
    H128    H    0.56104   0.76928   0.11374   1.000
    H129    H    0.14714   0.26976   0.11705   1.000
    H130    H    0.14713   0.76993   0.11720   1.000
    H131    H    0.64714   0.26976   0.11705   1.000
    H132    H    0.64713   0.76993   0.11720   1.000
    H133    H    0.10246   0.32998   0.12874   1.000
    H134    H    0.10245   0.83017   0.12875   1.000
    H135    H    0.60245   0.32998   0.12874   1.000
    H136    H    0.60245   0.83017   0.12875   1.000
    C137    C    0.37800   0.26422   0.82790   1.000
    C138    C    0.37802   0.76430   0.82787   1.000
    C139    C    0.87800   0.26423   0.82790   1.000
    C140    C    0.87802   0.76430   0.82787   1.000
    C141    C    0.43108   0.24155   0.79540   1.000
    C142    C    0.43109   0.74161   0.79538   1.000
    C143    C    0.93108   0.24156   0.79540   1.000
    C144    C    0.93109   0.74161   0.79538   1.000
    C145    C    0.32071   0.27335   0.79283   1.000
    C146    C    0.32075   0.77348   0.79278   1.000
    C147    C    0.82071   0.27336   0.79283   1.000
    C148    C    0.82075   0.77348   0.79278   1.000
    C149    C    0.42685   0.22808   0.72882   1.000
    C150    C    0.42686   0.72814   0.72880   1.000
    C151    C    0.92685   0.22808   0.72882   1.000
    C152    C    0.92686   0.72814   0.72880   1.000
    C153    C    0.31654   0.25995   0.72622   1.000
    C154    C    0.31659   0.76008   0.72617   1.000
    C155    C    0.81655   0.25996   0.72622   1.000
    C156    C    0.81659   0.76008   0.72617   1.000
    C157    C    0.36954   0.23715   0.69375   1.000
    C158    C    0.36957   0.73724   0.69370   1.000
    C159    C    0.86954   0.23716   0.69375   1.000
    C160    C    0.86957   0.73724   0.69370   1.000
    C161    C    0.35678   0.44718   0.97401   1.000
    C162    C    0.35677   0.94719   0.97400   1.000
    C163    C    0.85678   0.44718   0.97401   1.000
    C164    C    0.85405   0.95771   0.89934   1.000
    C165    C    0.37196   0.23589   0.32791   1.000
    C166    C    0.37196   0.73589   0.32791   1.000
    C167    C    0.87196   0.23589   0.32791   1.000
    C168    C    0.87196   0.73589   0.32791   1.000
    C169    C    0.31886   0.25847   0.29541   1.000
    C170    C    0.31887   0.75850   0.29542   1.000
    C171    C    0.81886   0.25847   0.29541   1.000
    C172    C    0.81887   0.75850   0.29542   1.000
    C173    C    0.42930   0.22687   0.29284   1.000
    C174    C    0.42929   0.72685   0.29283   1.000
    C175    C    0.92930   0.22687   0.29284   1.000
    C176    C    0.92929   0.72685   0.29283   1.000
    C177    C    0.32309   0.27195   0.22885   1.000
    C178    C    0.32310   0.77197   0.22885   1.000
    C179    C    0.82309   0.27195   0.22885   1.000
    C180    C    0.82310   0.77197   0.22885   1.000
    C181    C    0.43347   0.24026   0.22625   1.000
    C182    C    0.43346   0.74024   0.22624   1.000
    C183    C    0.93347   0.24026   0.22625   1.000
    C184    C    0.93346   0.74024   0.22624   1.000
    C185    C    0.38044   0.26295   0.19377   1.000
    C186    C    0.38043   0.76295   0.19377   1.000
    C187    C    0.88044   0.26295   0.19377   1.000
    C188    C    0.88044   0.76295   0.19377   1.000
    C189    C    0.39320   0.05300   0.47301   1.000
    C190    C    0.39319   0.55301   0.47300   1.000
    C191    C    0.89320   0.05300   0.47301   1.000
    C192    C    0.89319   0.55301   0.47300   1.000
    C193    C    0.39533   0.04215   0.39841   1.000
    C194    C    0.39532   0.54214   0.39841   1.000
    C195    C    0.89533   0.04215   0.39840   1.000
    C196    C    0.89532   0.54214   0.39841   1.000
    C197    C    0.12177   0.01413   0.67212   1.000
    C198    C    0.12178   0.51407   0.67209   1.000
    C199    C    0.62177   0.01413   0.67212   1.000
    C200    C    0.62178   0.51407   0.67209   1.000
    C201    C    0.17919   0.52308   0.70704   1.000
    C202    C    0.67923   0.02303   0.70703   1.000
    C203    C    0.67919   0.52308   0.70704   1.000
    C204    C    0.07307   0.47789   0.77121   1.000
    C205    C    0.07300   0.97811   0.77130   1.000
    C206    C    0.57307   0.47789   0.77121   1.000
    C207    C    0.57300   0.97811   0.77130   1.000
    C208    C    0.18353   0.00958   0.77359   1.000
    C209    C    0.18349   0.50961   0.77360   1.000
    C210    C    0.68353   0.00958   0.77359   1.000
    C211    C    0.68350   0.50961   0.77360   1.000
    C212    C    0.13050   0.48686   0.80610   1.000
    C213    C    0.13048   0.98696   0.80621   1.000
    C214    C    0.63050   0.48686   0.80610   1.000
    C215    C    0.63048   0.98696   0.80621   1.000
    C216    C    0.14330   0.19700   0.52700   1.000
    C217    C    0.14329   0.69702   0.52696   1.000
    C218    C    0.64330   0.19700   0.52700   1.000
    C219    C    0.64329   0.69702   0.52696   1.000
    C220    C    0.14549   0.20783   0.60160   1.000
    C221    C    0.14548   0.70791   0.60150   1.000
    C222    C    0.64549   0.20783   0.60160   1.000
    C223    C    0.64548   0.70790   0.60150   1.000
    C224    C    0.12798   0.48593   0.17209   1.000
    C225    C    0.12798   0.98593   0.17210   1.000
    C226    C    0.62798   0.48593   0.17209   1.000
    C227    C    0.62798   0.98593   0.17210   1.000
    C228    C    0.18111   0.00851   0.20464   1.000
    C229    C    0.18109   0.50857   0.20462   1.000
    C230    C    0.68111   0.00851   0.20464   1.000
    C231    C    0.68109   0.50857   0.20462   1.000
    C232    C    0.07064   0.47684   0.20713   1.000
    C233    C    0.07061   0.97689   0.20712   1.000
    C234    C    0.57064   0.47684   0.20713   1.000
    C235    C    0.57061   0.97689   0.20712   1.000
    C236    C    0.17686   0.02196   0.27122   1.000
    C237    C    0.17684   0.52202   0.27120   1.000
    C238    C    0.67686   0.02196   0.27122   1.000
    C239    C    0.67684   0.52202   0.27120   1.000
    C240    C    0.06644   0.49022   0.27374   1.000
    C241    C    0.06642   0.99026   0.27373   1.000
    C242    C    0.56644   0.49022   0.27374   1.000
    C243    C    0.56642   0.99026   0.27373   1.000
    C244    C    0.11948   0.01295   0.30625   1.000
    C245    C    0.11948   0.51296   0.30624   1.000
    C246    C    0.61948   0.01295   0.30625   1.000
    C247    C    0.61948   0.51296   0.30624   1.000
    C248    C    0.10671   0.30298   0.02686   1.000
    C249    C    0.10670   0.80302   0.02693   1.000
    C250    C    0.60671   0.30298   0.02686   1.000
    C251    C    0.60670   0.80302   0.02693   1.000
    C252    C    0.10439   0.29217   0.10145   1.000
    C253    C    0.10438   0.79232   0.10155   1.000
    C254    C    0.60439   0.29217   0.10145   1.000
    C255    C    0.60438   0.79232   0.10155   1.000
    O256    O    0.30231   0.41777   0.99679   1.000
    O257    O    0.30230   0.91778   0.99678   1.000
    O258    O    0.80231   0.41777   0.99679   1.000
    O259    O    0.80230   0.91778   0.99678   1.000
    O260    O    0.44778   0.08264   0.49495   1.000
    O261    O    0.44778   0.58265   0.49495   1.000
    O262    O    0.94778   0.08264   0.49495   1.000
    O263    O    0.94778   0.58265   0.49495   1.000
    O264    O    0.19784   0.16737   0.50500   1.000
    O265    O    0.19783   0.66737   0.50500   1.000
    O266    O    0.69784   0.16737   0.50500   1.000
    O267    O    0.69784   0.66737   0.50500   1.000
    O268    O    0.05218   0.33258   0.00481   1.000
    O269    O    0.05218   0.83260   0.00482   1.000
    O270    O    0.55218   0.33258   0.00481   1.000
    O271    O    0.55218   0.83260   0.00482   1.000
loop_
    _geom_bond_atom_site_label_1
    _geom_bond_atom_site_label_2
    _geom_bond_distance
    _geom_bond_site_symmetry_2
    _ccdc_geom_bond_type
    H19    C68       1.09797  1_554   S
    H18    C163      1.09774  1_554   S
    H17    C162      1.09797  1_554   S
    H16    C161      1.09774  1_554   S
    O270   C250      1.42611      .   S
    O268   C248      1.42610      .   S
    O271   C251      1.42611      .   S
    O269   C249      1.42609      .   S
    C250   C254      1.53317      .   S
    C250   H123      1.10561  1_554   S
    C248   C252      1.53317      .   S
    C248   H121      1.10561  1_554   S
    C249   C253      1.53329      .   S
    C249   H122      1.10564      .   S
    C251   C255      1.53330      .   S
    C251   H124      1.10564      .   S
    C252   H125      1.09746      .   S
    C252   H129      1.09743      .   S
    C252   H133      1.09915      .   S
    C254   H127      1.09745      .   S
    C254   H131      1.09743      .   S
    C254   H135      1.09917      .   S
    C253   H126      1.09743      .   S
    C253   H130      1.09743      .   S
    C253   H134      1.09908      .   S
    C255   H128      1.09741      .   S
    C255   H132      1.09742      .   S
    C255   H136      1.09910      .   S
    C226   C231      1.40340      .   S
    C226   C234      1.40337      .   S
    C224   C229      1.40340      .   S
    C224   C232      1.40337      .   S
    C227   C230      1.40333  1_565   S
    C227   C235      1.40336      .   S
    C225   C228      1.40333  1_565   S
    C225   C233      1.40334      .   S
    H108   C231      1.08879      .   S
    H106   C229      1.08879      .   S
    H107   C230      1.08871      .   S
    H105   C228      1.08872      .   S
    H112   C235      1.08885      .   S
    H110   C233      1.08885      .   S
    H111   C234      1.08889      .   S
    H109   C232      1.08888      .   S
    C185   C181      1.40317      .   S
    C185   C177      1.40358      .   S
    C186   C182      1.40316      .   S
    C186   C178      1.40348      .   S
    C188   C184      1.40315      .   S
    C188   C180      1.40349      .   S
    C187   C183      1.40317      .   S
    C187   C179      1.40358      .   S
    H47    C184      1.08847      .   S
    H45    C182      1.08846      .   S
    H46    C183      1.08843      .   S
    H44    C181      1.08843      .   S
    H42    C179      1.08892      .   S
    H40    C177      1.08892      .   S
    H43    C180      1.08890      .   S
    H41    C178      1.08889      .   S
    C229   C237      1.39060      .   S
    C231   C239      1.39060      .   S
    C228   C236      1.39058      .   S
    C230   C238      1.39058      .   S
    C235   C243      1.39061      .   S
    C233   C241      1.39061      .   S
    C234   C242      1.39062      .   S
    C232   C240      1.39063      .   S
    C182   C174      1.39053      .   S
    C184   C176      1.39052      .   S
    C183   C175      1.39053      .   S
    C181   C173      1.39052      .   S
    C180   C172      1.39070      .   S
    C179   C171      1.39051      .   S
    C178   C170      1.39071      .   S
    C177   C169      1.39051      .   S
    C239   H116      1.08879      .   S
    C239   C247      1.40343      .   S
    C237   H114      1.08880      .   S
    C237   C245      1.40344      .   S
    C236   H113      1.08886      .   S
    C236   C244      1.40353      .   S
    C238   H115      1.08886      .   S
    C238   C246      1.40353      .   S
    C241   H118      1.08841      .   S
    C241   C244      1.40309  1_565   S
    C243   H120      1.08841      .   S
    C243   C246      1.40309  1_565   S
    C242   H119      1.08847      .   S
    C242   C247      1.40307      .   S
    C240   H117      1.08846      .   S
    C240   C245      1.40306      .   S
    C176   H39       1.08887      .   S
    C176   C168      1.40344      .   S
    C174   H37       1.08887      .   S
    C174   C166      1.40345      .   S
    C173   H36       1.08890      .   S
    C173   C165      1.40344      .   S
    C175   H38       1.08889      .   S
    C175   C167      1.40344      .   S
    C171   H34       1.08875      .   S
    C171   C167      1.40341      .   S
    C169   H32       1.08875      .   S
    C169   C165      1.40341      .   S
    C172   H35       1.08869      .   S
    C172   C168      1.40340      .   S
    C170   H33       1.08870      .   S
    C170   C166      1.40337      .   S
    H63    C196      1.09910      .   S
    H62    C195      1.09911      .   S
    H61    C194      1.09908      .   S
    H60    C193      1.09919      .   S
    H56    C193      1.09750      .   S
    H58    C195      1.09743      .   S
    H57    C194      1.09744      .   S
    H59    C196      1.09744      .   S
    H52    C193      1.09745      .   S
    H54    C195      1.09739      .   S
    H53    C194      1.09740      .   S
    H55    C196      1.09741      .   S
    C195   C191      1.53345      .   S
    C196   C192      1.53309      .   S
    C193   C189      1.53325      .   S
    C194   C190      1.53309      .   S
    C190   O261      1.42615      .   S
    C190   H49       1.10574      .   S
    C192   O263      1.42615      .   S
    C192   H51       1.10574      .   S
    C189   O260      1.42602      .   S
    C189   H48       1.10563      .   S
    C191   O262      1.42601      .   S
    C191   H50       1.10565      .   S
    H85    C217      1.10564      .   S
    H87    C219      1.10564      .   S
    H86    C218      1.10569      .   S
    H84    C216      1.10569      .   S
    O267   C219      1.42612      .   S
    O264   C216      1.42613      .   S
    O265   C217      1.42610      .   S
    O266   C218      1.42613      .   S
    C219   C223      1.53222      .   S
    C217   C221      1.53222      .   S
    C218   C222      1.53316      .   S
    C216   C220      1.53316      .   S
    C223   H91       1.09769      .   S
    C223   H95       1.09775      .   S
    C223   H99       1.09971      .   S
    C221   H89       1.09768      .   S
    C221   H93       1.09775      .   S
    C221   H97       1.09973      .   S
    C222   H90       1.09745      .   S
    C222   H94       1.09745      .   S
    C222   H98       1.09918      .   S
    C220   H88       1.09743      .   S
    C220   H92       1.09744      .   S
    C220   H96       1.09918      .   S
    C198   C100      1.40341      .   S
    C198   C201      1.40338      .   S
    C200   C102      1.40340      .   S
    C200   C203      1.40338      .   S
    C199   C103      1.40338  1_545   S
    C199   C202      1.40341      .   S
    C197   C101      1.40340  1_545   S
    C197   C104      1.40340      .   S
    H64    C100      1.08871      .   S
    H66    C102      1.08872      .   S
    H65    C101      1.08875      .   S
    H67    C103      1.08877      .   S
    H72    C104      1.08887      .   S
    H74    C202      1.08886      .   S
    H73    C201      1.08915      .   S
    H75    C203      1.08887      .   S
    C158   C154      1.40325      .   S
    C158   C150      1.40367      .   S
    C160   C156      1.40326      .   S
    C160   C152      1.40367      .   S
    C157   C153      1.40311      .   S
    C157   C149      1.40345      .   S
    C159   C155      1.40312      .   S
    C159   C151      1.40344      .   S
    H13    C154      1.08840      .   S
    H15    C156      1.08838      .   S
    H14    C155      1.08850      .   S
    H12    C153      1.08837      .   S
    H9     C150      1.08889      .   S
    H11    C152      1.08889      .   S
    H10    C151      1.08882      .   S
    H8     C149      1.08880      .   S
    C100   C204      1.39059      .   S
    C102   C206      1.39060      .   S
    C101   C205      1.39072      .   S
    C103   C207      1.39072      .   S
    C104   C208      1.39057      .   S
    C202   C210      1.39057      .   S
    C203   C211      1.39068      .   S
    C201   C209      1.39067      .   S
    C156   C148      1.39068      .   S
    C154   C146      1.39068      .   S
    C153   C145      1.39072      .   S
    C155   C147      1.39071      .   S
    C150   C142      1.39065      .   S
    C152   C144      1.39066      .   S
    C149   C141      1.39069      .   S
    C151   C143      1.39067      .   S
    C204   H76       1.08837      .   S
    C204   C212      1.40290      .   S
    C206   H78       1.08837      .   S
    C206   C214      1.40291      .   S
    C207   H79       1.08890      .   S
    C207   C215      1.40356      .   S
    C205   H77       1.08888      .   S
    C205   C213      1.40358      .   S
    C208   H80       1.08771      .   S
    C208   C213      1.40318  1_545   S
    C210   H82       1.08771      .   S
    C210   C215      1.40319  1_545   S
    C209   H81       1.08848      .   S
    C209   C212      1.40253      .   S
    C211   H83       1.08849      .   S
    C211   C214      1.40252      .   S
    C146   H5        1.08882      .   S
    C146   C138      1.40335      .   S
    C148   H7        1.08884      .   S
    C148   C140      1.40334      .   S
    C145   H4        1.08882      .   S
    C145   C137      1.40331      .   S
    C147   H6        1.08827      .   S
    C147   C139      1.40328      .   S
    C142   H1        1.08853      .   S
    C142   C138      1.40332      .   S
    C144   H3        1.08851      .   S
    C144   C140      1.40333      .   S
    C141   H0        1.08870      .   S
    C141   C137      1.40333      .   S
    C143   H2        1.08871      .   S
    C143   C139      1.40336      .   S
    H31    C164      1.09917      .   S
    H29    C70       1.09877      .   S
    H30    C71       1.09853      .   S
    H28    C69       1.09915      .   S
    H24    C69       1.09777      .   S
    H25    C70       1.09735      .   S
    H27    C164      1.09749      .   S
    H26    C71       1.09707      .   S
    H21    C70       1.09723      .   S
    H23    C164      1.09741      .   S
    H20    C69       1.09742      .   S
    H22    C71       1.09713      .   S
    C70    C162      1.53444      .   S
    C71    C163      1.53472      .   S
    C164   C68       1.53364      .   S
    C69    C161      1.53352      .   S
    C68    O259      1.42640      .   S
    C162   O257      1.42640      .   S
    C163   O258      1.42644      .   S
    C161   O256      1.42644      .   S
