# CIF file generated by openbabel 2.4.90, see http://openbabel.sf.net
data_I
_chemical_name_common ''
_cell_length_a 20.75
_cell_length_b 25.128
_cell_length_c 20.218
_cell_angle_alpha 90.024
_cell_angle_beta 89.988
_cell_angle_gamma 90.036
_space_group_name_H-M_alt 'P 1'
_space_group_name_Hall 'P 1'
loop_
    _symmetry_equiv_pos_as_xyz
    x,y,z
loop_
    _atom_site_label
    _atom_site_type_symbol
    _atom_site_fract_x
    _atom_site_fract_y
    _atom_site_fract_z
    _atom_site_occupancy
    Zn0     Zn   0.46628   0.80344   0.01119   1.000
    Zn1     Zn   0.96629   0.30343   0.01119   1.000
    Zn2     Zn   0.96628   0.80344   0.01119   1.000
    Zn3     Zn   0.31415   0.33825   0.01123   1.000
    Zn4     Zn   0.31414   0.83826   0.01123   1.000
    Zn5     Zn   0.81415   0.33825   0.01123   1.000
    Zn6     Zn   0.81414   0.83826   0.01123   1.000
    Zn7     Zn   0.28372   0.19656   0.51119   1.000
    Zn8     Zn   0.28372   0.69657   0.51119   1.000
    Zn9     Zn   0.78372   0.19656   0.51119   1.000
    Zn10    Zn   0.78372   0.69657   0.51119   1.000
    Zn11    Zn   0.43584   0.16184   0.51111   1.000
    Zn12    Zn   0.43583   0.66185   0.51111   1.000
    Zn13    Zn   0.93584   0.16184   0.51111   1.000
    Zn14    Zn   0.93583   0.66185   0.51111   1.000
    Zn15    Zn   0.03365   0.05346   0.48881   1.000
    Zn16    Zn   0.03365   0.55346   0.48881   1.000
    Zn17    Zn   0.53365   0.05346   0.48881   1.000
    Zn18    Zn   0.53365   0.55346   0.48881   1.000
    Zn19    Zn   0.18581   0.08816   0.48800   1.000
    Zn20    Zn   0.18581   0.58817   0.48890   1.000
    Zn21    Zn   0.68581   0.08816   0.48800   1.000
    Zn22    Zn   0.68581   0.58817   0.48890   1.000
    Zn23    Zn   0.21635   0.44654   0.98889   1.000
    Zn24    Zn   0.21634   0.94656   0.98888   1.000
    Zn25    Zn   0.71635   0.44654   0.98889   1.000
    Zn26    Zn   0.71634   0.94656   0.98888   1.000
    Zn27    Zn   0.06417   0.41181   0.98887   1.000
    Zn28    Zn   0.06416   0.91182   0.98887   1.000
    Zn29    Zn   0.56417   0.41181   0.98887   1.000
    Zn30    Zn   0.56416   0.91182   0.98887   1.000
    Zn31    Zn   0.46629   0.30343   0.01119   1.000
    C32     C    0.38271   0.27993   0.89918   1.000
    C33     C    0.38272   0.77997   0.89910   1.000
    C34     C    0.88271   0.27994   0.89918   1.000
    C35     C    0.88272   0.77997   0.89910   1.000
    C36     C    0.36485   0.22110   0.62258   1.000
    C37     C    0.36486   0.72114   0.62256   1.000
    C38     C    0.86485   0.22110   0.62258   1.000
    C39     C    0.86486   0.72114   0.62256   1.000
    C40     C    0.41906   0.41736   0.99010   1.000
    C41     C    0.41905   0.91737   0.99000   1.000
    C42     C    0.91906   0.41736   0.99010   1.000
    C43     C    0.91905   0.91737   0.99009   1.000
    O44     O    0.06285   0.52127   0.57221   1.000
    O45     O    0.56284   0.02129   0.57223   1.000
    O46     O    0.56285   0.52127   0.57221   1.000
    O47     O    0.18914   0.48051   0.90637   1.000
    O48     O    0.18910   0.98066   0.90640   1.000
    O49     O    0.68915   0.48051   0.90637   1.000
    O50     O    0.68910   0.98066   0.90640   1.000
    O51     O    0.08625   0.44879   0.90290   1.000
    C52     C    0.36723   0.22014   0.39916   1.000
    C53     C    0.36723   0.72015   0.39916   1.000
    C54     C    0.86723   0.22014   0.39916   1.000
    C55     C    0.86723   0.72015   0.39916   1.000
    C56     C    0.38513   0.27895   0.12260   1.000
    C57     C    0.38513   0.77895   0.12259   1.000
    C58     C    0.88513   0.27895   0.12260   1.000
    C59     C    0.88513   0.77895   0.12259   1.000
    C60     C    0.33096   0.08270   0.48971   1.000
    C61     C    0.33096   0.58271   0.48972   1.000
    C62     C    0.83096   0.08270   0.48971   1.000
    C63     C    0.83096   0.58271   0.48972   1.000
    C64     C    0.11701   0.02989   0.60088   1.000
    C65     C    0.11702   0.52987   0.60086   1.000
    C66     C    0.61701   0.02989   0.60088   1.000
    C67     C    0.61702   0.52987   0.60086   1.000
    C68     C    0.13525   0.47081   0.87731   1.000
    C69     C    0.13523   0.97090   0.87735   1.000
    C70     C    0.63525   0.47081   0.87731   1.000
    C71     C    0.63523   0.97090   0.87735   1.000
    C72     C    0.08101   0.16731   0.51031   1.000
    C73     C    0.08101   0.66732   0.51030   1.000
    C74     C    0.58101   0.16731   0.51031   1.000
    C75     C    0.58101   0.66732   0.51030   1.000
    C76     C    0.13270   0.47019   0.10083   1.000
    C77     C    0.13271   0.97019   0.10083   1.000
    C78     C    0.63271   0.47019   0.10083   1.000
    C79     C    0.63271   0.97019   0.10083   1.000
    C80     C    0.11480   0.02895   0.37743   1.000
    C81     C    0.11479   0.52895   0.37743   1.000
    C82     C    0.61480   0.02895   0.37743   1.000
    C83     C    0.61479   0.52896   0.37743   1.000
    C84     C    0.16901   0.33269   0.01026   1.000
    C85     C    0.16900   0.83271   0.01020   1.000
    C86     C    0.66901   0.33269   0.01026   1.000
    C87     C    0.66900   0.83271   0.01020   1.000
    O88     O    0.33315   0.30112   0.92515   1.000
    O89     O    0.33315   0.80113   0.92514   1.000
    O90     O    0.83315   0.30112   0.92515   1.000
    O91     O    0.83315   0.80113   0.92514   1.000
    O92     O    0.43677   0.27116   0.92790   1.000
    O93     O    0.43677   0.77118   0.92789   1.000
    O94     O    0.93677   0.27116   0.92790   1.000
    O95     O    0.93677   0.77118   0.92789   1.000
    O96     O    0.31109   0.23103   0.59340   1.000
    O97     O    0.31110   0.73106   0.59338   1.000
    O98     O    0.81110   0.23103   0.59300   1.000
    O99     O    0.81110   0.73106   0.59338   1.000
    O100    O    0.41373   0.19884   0.59708   1.000
    O101    O    0.41373   0.69886   0.59707   1.000
    O102    O    0.91373   0.19884   0.59700   1.000
    O103    O    0.91373   0.69886   0.59707   1.000
    O104    O    0.41204   0.37045   0.01423   1.000
    O105    O    0.41203   0.87046   0.01423   1.000
    O106    O    0.91204   0.37045   0.01423   1.000
    O107    O    0.91203   0.87046   0.01423   1.000
    O108    O    0.47201   0.43961   0.97792   1.000
    O109    O    0.47200   0.93961   0.97791   1.000
    O110    O    0.97201   0.43961   0.97792   1.000
    O111    O    0.97200   0.93961   0.97791   1.000
    O112    O    0.41681   0.19902   0.42511   1.000
    O113    O    0.41680   0.69902   0.42511   1.000
    O114    O    0.91681   0.19902   0.42511   1.000
    O115    O    0.91680   0.69902   0.42511   1.000
    O116    O    0.31313   0.22883   0.42788   1.000
    O117    O    0.31312   0.72884   0.42788   1.000
    O118    O    0.81313   0.22883   0.42788   1.000
    O119    O    0.81312   0.72884   0.42788   1.000
    O120    O    0.43890   0.26902   0.09340   1.000
    O121    O    0.43890   0.76902   0.09340   1.000
    O122    O    0.93890   0.26902   0.09340   1.000
    O123    O    0.93890   0.76902   0.09340   1.000
    O124    O    0.33624   0.30115   0.09709   1.000
    O125    O    0.33624   0.80115   0.09709   1.000
    O126    O    0.83624   0.30115   0.09709   1.000
    O127    O    0.83624   0.80115   0.09709   1.000
    O128    O    0.33802   0.12953   0.51416   1.000
    O129    O    0.33802   0.62954   0.51416   1.000
    O130    O    0.83802   0.12953   0.51416   1.000
    O131    O    0.83802   0.62954   0.51416   1.000
    O132    O    0.27798   0.06040   0.47782   1.000
    O133    O    0.27798   0.56041   0.47782   1.000
    O134    O    0.77798   0.06040   0.47782   1.000
    O135    O    0.77798   0.56041   0.47782   1.000
    O136    O    0.16665   0.05095   0.57488   1.000
    O137    O    0.16664   0.55096   0.57488   1.000
    O138    O    0.66665   0.05095   0.57488   1.000
    O139    O    0.66665   0.55096   0.57488   1.000
    O140    O    0.06284   0.02129   0.57223   1.000
    O141    O    0.08627   0.94881   0.90294   1.000
    O142    O    0.58625   0.44879   0.90290   1.000
    O143    O    0.58627   0.94881   0.90294   1.000
    O144    O    0.08803   0.12048   0.48580   1.000
    O145    O    0.08803   0.62049   0.48585   1.000
    O146    O    0.58803   0.12048   0.48580   1.000
    O147    O    0.58803   0.62049   0.48585   1.000
    O148    O    0.02806   0.18960   0.52221   1.000
    O149    O    0.02805   0.68960   0.52221   1.000
    O150    O    0.52806   0.18960   0.52221   1.000
    O151    O    0.52805   0.68960   0.52221   1.000
    O152    O    0.08313   0.44898   0.07489   1.000
    O153    O    0.08313   0.94899   0.07489   1.000
    O154    O    0.58313   0.44899   0.07480   1.000
    O155    O    0.58313   0.94899   0.07489   1.000
    O156    O    0.18677   0.47896   0.07208   1.000
    O157    O    0.18677   0.97896   0.07208   1.000
    O158    O    0.68677   0.47896   0.07208   1.000
    O159    O    0.68677   0.97896   0.07208   1.000
    O160    O    0.06104   0.01898   0.40664   1.000
    O161    O    0.06104   0.51899   0.40663   1.000
    O162    O    0.56104   0.01898   0.40664   1.000
    O163    O    0.56104   0.51899   0.40663   1.000
    O164    O    0.16371   0.05118   0.40294   1.000
    O165    O    0.16371   0.55119   0.40294   1.000
    O166    O    0.66371   0.05118   0.40294   1.000
    O167    O    0.66371   0.55119   0.40294   1.000
    O168    O    0.16201   0.37950   0.98583   1.000
    O169    O    0.16201   0.87952   0.98581   1.000
    O170    O    0.66201   0.37950   0.98583   1.000
    O171    O    0.66201   0.87952   0.98581   1.000
    O172    O    0.22195   0.31041   0.02219   1.000
    O173    O    0.22195   0.81042   0.02220   1.000
    O174    O    0.72195   0.31041   0.02219   1.000
    O175    O    0.72195   0.81042   0.02220   1.000
    Ts176   Ts   0.49492   0.81316   0.00907   1.000
    Ts177   Ts   0.99492   0.31315   0.00906   1.000
    Ts178   Ts   0.99492   0.81316   0.00907   1.000
    Ts179   Ts   0.31020   0.36476   0.00642   1.000
    Ts180   Ts   0.31020   0.86477   0.00641   1.000
    Ts181   Ts   0.81020   0.36476   0.00642   1.000
    Ts182   Ts   0.81020   0.86477   0.00641   1.000
    Ts183   Ts   0.25510   0.18683   0.50913   1.000
    Ts184   Ts   0.25509   0.68684   0.50913   1.000
    Ts185   Ts   0.75510   0.18683   0.50913   1.000
    Ts186   Ts   0.75509   0.68684   0.50913   1.000
    Ts187   Ts   0.43982   0.13544   0.50572   1.000
    Ts188   Ts   0.43982   0.63545   0.50572   1.000
    Ts189   Ts   0.93982   0.13544   0.50572   1.000
    Ts190   Ts   0.93982   0.63545   0.50572   1.000
    Ts191   Ts   0.00503   0.06319   0.49086   1.000
    Ts192   Ts   0.00503   0.56319   0.49086   1.000
    Ts193   Ts   0.50503   0.06319   0.49086   1.000
    Ts194   Ts   0.50503   0.56319   0.49086   1.000
    Ts195   Ts   0.18982   0.11456   0.49367   1.000
    Ts196   Ts   0.18982   0.61457   0.49427   1.000
    Ts197   Ts   0.68982   0.11456   0.49367   1.000
    Ts198   Ts   0.68982   0.61457   0.49427   1.000
    Ts199   Ts   0.24500   0.43695   0.99152   1.000
    Ts200   Ts   0.24499   0.93697   0.99151   1.000
    Ts201   Ts   0.74500   0.43695   0.99152   1.000
    Ts202   Ts   0.74499   0.93697   0.99151   1.000
    Ts203   Ts   0.06017   0.38540   0.99418   1.000
    Ts204   Ts   0.06017   0.88542   0.99419   1.000
    Ts205   Ts   0.56017   0.38540   0.99418   1.000
    Ts206   Ts   0.56017   0.88542   0.99419   1.000
    Ts207   Ts   0.49492   0.31315   0.00906   1.000
    Og208   Og   0.38114   0.27470   0.87542   1.000
    Og209   Og   0.38115   0.77475   0.87536   1.000
    Og210   Og   0.88114   0.27470   0.87542   1.000
    Og211   Og   0.88115   0.77475   0.87536   1.000
    Og212   Og   0.36641   0.22645   0.64630   1.000
    Og213   Og   0.36643   0.72651   0.64627   1.000
    Og214   Og   0.86641   0.22645   0.64630   1.000
    Og215   Og   0.86643   0.72651   0.64627   1.000
    Og216   Og   0.39830   0.42730   0.98474   1.000
    Og217   Og   0.39829   0.92731   0.98467   1.000
    Og218   Og   0.89830   0.42730   0.98474   1.000
    Og219   Og   0.89829   0.92731   0.98473   1.000
    Og220   Og   0.36881   0.22539   0.37541   1.000
    Og221   Og   0.36881   0.72540   0.37541   1.000
    Og222   Og   0.86881   0.22539   0.37541   1.000
    Og223   Og   0.86881   0.72540   0.37541   1.000
    Og224   Og   0.38357   0.27361   0.14632   1.000
    Og225   Og   0.38357   0.77362   0.14632   1.000
    Og226   Og   0.88357   0.27361   0.14632   1.000
    Og227   Og   0.88357   0.77362   0.14632   1.000
    Og228   Og   0.35171   0.07280   0.48414   1.000
    Og229   Og   0.35170   0.57281   0.48415   1.000
    Og230   Og   0.85171   0.07280   0.48414   1.000
    Og231   Og   0.85170   0.57281   0.48415   1.000
    Og232   Og   0.11860   0.02464   0.62463   1.000
    Og233   Og   0.11861   0.52461   0.62460   1.000
    Og234   Og   0.61860   0.02464   0.62463   1.000
    Og235   Og   0.61861   0.52461   0.62460   1.000
    Og236   Og   0.13366   0.47616   0.85357   1.000
    Og237   Og   0.13365   0.97626   0.85364   1.000
    Og238   Og   0.63366   0.47616   0.85357   1.000
    Og239   Og   0.63365   0.97626   0.85364   1.000
    Og240   Og   0.10177   0.17720   0.51587   1.000
    Og241   Og   0.10177   0.67722   0.51585   1.000
    Og242   Og   0.60177   0.17720   0.51587   1.000
    Og243   Og   0.60177   0.67722   0.51585   1.000
    Og244   Og   0.13113   0.47544   0.12458   1.000
    Og245   Og   0.13113   0.97544   0.12459   1.000
    Og246   Og   0.63113   0.47544   0.12458   1.000
    Og247   Og   0.63113   0.97544   0.12459   1.000
    Og248   Og   0.11636   0.02361   0.35370   1.000
    Og249   Og   0.11636   0.52362   0.35370   1.000
    Og250   Og   0.61636   0.02361   0.35370   1.000
    Og251   Og   0.61636   0.52363   0.35370   1.000
    Og252   Og   0.14824   0.32279   0.01579   1.000
    Og253   Og   0.14824   0.82281   0.01578   1.000
    Og254   Og   0.64824   0.32279   0.01579   1.000
    Og255   Og   0.64824   0.82281   0.01578   1.000
loop_
    _geom_bond_atom_site_label_1
    _geom_bond_atom_site_label_2
    _geom_bond_distance
    _geom_bond_site_symmetry_2
    _ccdc_geom_bond_type
    C87    O175      1.25713      .   S
    C87    O171      1.28382  1_554   S
    C85    O173      1.25713      .   S
    C85    O169      1.28382  1_554   S
    C86    O174      1.25683      .   S
    C86    O170      1.28435  1_554   S
    C84    O172      1.25682      .   S
    C84    O168      1.28435  1_554   S
    Zn0    O105      2.02707      .   S
    Zn0    O121      1.95802      .   S
    Zn0    O93       1.96661  1_554   S
    Zn31   O104      2.02702      .   S
    Zn31   O120      1.95798      .   S
    Zn31   O92       1.96656  1_554   S
    Zn1    O106      2.02701      .   S
    Zn1    O122      1.95796      .   S
    Zn1    O94       1.96656  1_554   S
    Zn2    O107      2.02707      .   S
    Zn2    O123      1.95802      .   S
    Zn2    O95       1.96661  1_554   S
    Zn4    O173      2.04853      .   S
    Zn4    O125      2.02364      .   S
    Zn4    O89       2.01353  1_554   S
    Zn6    O175      2.04853      .   S
    Zn6    O127      2.02365      .   S
    Zn6    O91       2.01353  1_554   S
    Zn5    O174      2.04853      .   S
    Zn5    O126      2.02364      .   S
    Zn5    O90       2.01341  1_554   S
    Zn3    O172      2.04855      .   S
    Zn3    O124      2.02363      .   S
    Zn3    O88       2.01341  1_554   S
    O104   C40       1.28428  1_554   S
    O105   C41       1.28500  1_554   S
    O106   C42       1.28428  1_554   S
    O107   C43       1.28431  1_554   S
    O159   C79       1.28232      .   S
    O159   Zn26      1.96666  1_554   S
    O158   C78       1.28232      .   S
    O158   Zn25      1.96673  1_554   S
    O157   C77       1.28232      .   S
    O157   Zn24      1.96666  1_554   S
    O156   C76       1.28233      .   S
    O156   Zn23      1.96672  1_554   S
    O154   C78       1.27209      .   S
    O154   Zn29      2.01105  1_554   S
    O152   C76       1.27134      .   S
    O152   Zn27      2.01261  1_554   S
    O153   C77       1.27131      .   S
    O153   Zn28      2.01256  1_554   S
    O155   C79       1.27131      .   S
    O155   Zn30      2.01256  1_554   S
    O123   C59       1.28654      .   S
    O122   C58       1.28666      .   S
    O121   C57       1.28655      .   S
    O120   C56       1.28665      .   S
    O126   C58       1.26789      .   S
    O124   C56       1.26790      .   S
    O125   C57       1.26783      .   S
    O127   C59       1.26782      .   S
    C83    O167      1.26792      .   S
    C83    O163      1.28645      .   S
    C82    O166      1.26792      .   S
    C82    O162      1.28651      .   S
    C81    O165      1.26793      .   S
    C81    O161      1.28645      .   S
    C80    O164      1.26792      .   S
    C80    O160      1.28652      .   S
    C55    O115      1.27133      .   S
    C55    O119      1.28264      .   S
    C54    O114      1.27135      .   S
    C54    O118      1.28265      .   S
    C53    O113      1.27133      .   S
    C53    O117      1.28265      .   S
    C52    O112      1.27134      .   S
    C52    O116      1.28265      .   S
    O167   Zn22      2.02302      .   S
    O166   Zn21      2.00746      .   S
    O165   Zn20      2.02302      .   S
    O164   Zn19      2.00746      .   S
    O163   Zn18      1.95779      .   S
    O161   Zn16      1.95777      .   S
    O162   Zn17      1.95767      .   S
    O160   Zn15      1.95767      .   S
    O112   Zn11      2.01343      .   S
    O115   Zn14      2.01342      .   S
    O114   Zn13      2.01342      .   S
    O113   Zn12      2.01341      .   S
    O118   Zn9       1.96646      .   S
    O116   Zn7       1.96646      .   S
    O117   Zn8       1.96644      .   S
    O119   Zn10      1.96646      .   S
    O132   Zn19      2.04643      .   S
    O132   C60       1.25679      .   S
    O133   Zn20      2.04834      .   S
    O133   C61       1.25682      .   S
    O134   Zn21      2.04643      .   S
    O134   C62       1.25678      .   S
    O135   Zn22      2.04834      .   S
    O135   C63       1.25682      .   S
    O146   Zn17      2.02763      .   S
    O146   C74       1.28483      .   S
    O144   Zn15      2.02763      .   S
    O144   C72       1.28483      .   S
    O147   Zn18      2.02760      .   S
    O147   C75       1.28446      .   S
    O145   Zn16      2.02760      .   S
    O145   C73       1.28446      .   S
    Zn21   O138      2.02935      .   S
    Zn19   O136      2.02935      .   S
    Zn18   O46       1.96645      .   S
    Zn17   O45       1.96647      .   S
    Zn16   O44       1.96645      .   S
    Zn15   O140      1.96645      .   S
    Zn22   O139      2.01362      .   S
    Zn20   O137      2.01364      .   S
    C62    O130      1.28448      .   S
    C60    O128      1.28447      .   S
    C63    O131      1.28440      .   S
    C61    O129      1.28440      .   S
    C73    O149      1.25684      .   S
    C75    O151      1.25684      .   S
    C74    O150      1.25681      .   S
    C72    O148      1.25681      .   S
    Zn14   O149      2.04857  1_655   S
    Zn14   O103      2.02351      .   S
    Zn13   O148      2.04858  1_655   S
    Zn13   O102      2.02220      .   S
    Zn11   O150      2.04858      .   S
    Zn11   O100      2.02359      .   S
    Zn12   O151      2.04857      .   S
    Zn12   O101      2.02351      .   S
    Zn7    O128      2.02787      .   S
    Zn7    O96       1.95803      .   S
    Zn8    O129      2.02787      .   S
    Zn8    O97       1.95804      .   S
    Zn9    O130      2.02788      .   S
    Zn9    O98       1.95121      .   S
    Zn10   O131      2.02787      .   S
    Zn10   O99       1.95804      .   S
    O44    C65       1.28273      .   S
    O46    C67       1.28272      .   S
    O45    C66       1.28277      .   S
    O140   C64       1.28278      .   S
    O136   C64       1.27144      .   S
    O137   C65       1.27139      .   S
    O138   C66       1.27146      .   S
    O139   C67       1.27143      .   S
    O98    C38       1.29021      .   S
    O99    C39       1.28645      .   S
    O97    C37       1.28645      .   S
    O96    C36       1.28647      .   S
    O102   C38       1.26858      .   S
    O103   C39       1.26796      .   S
    O101   C37       1.26796      .   S
    O100   C36       1.26794      .   S
    C68    O51       1.26758      .   S
    C68    O47       1.28652      .   S
    C70    O142      1.26757      .   S
    C70    O49       1.28654      .   S
    C69    O141      1.26788      .   S
    C69    O48       1.28622      .   S
    C71    O143      1.26786      .   S
    C71    O50       1.28622      .   S
    C33    O89       1.27203      .   S
    C33    O93       1.28306      .   S
    C35    O91       1.27202      .   S
    C35    O95       1.28306      .   S
    C32    O88       1.27153      .   S
    C32    O92       1.28248      .   S
    C34    O90       1.27152      .   S
    C34    O94       1.28247      .   S
    O51    Zn27      2.02361      .   S
    O142   Zn29      2.02361      .   S
    O141   Zn28      2.02309      .   S
    O143   Zn30      2.02309      .   S
    O47    Zn23      1.95773      .   S
    O49    Zn25      1.95771      .   S
    O48    Zn24      1.95867      .   S
    O50    Zn26      1.95867      .   S
    O109   Zn30      2.04840      .   S
    O109   C41       1.25639      .   S
    O111   Zn28      2.04839  1_655   S
    O111   C43       1.25675      .   S
    O108   Zn29      2.04837      .   S
    O108   C40       1.25672      .   S
    O110   Zn27      2.04835  1_655   S
    O110   C42       1.25674      .   S
    O171   Zn26      2.02750      .   S
    O169   Zn24      2.02750      .   S
    O170   Zn25      2.02745      .   S
    O168   Zn23      2.02746      .   S
    O104   Zn3       2.18674      .   S
    O105   Zn4       2.18671      .   S
    O106   Zn5       2.18675      .   S
    O107   Zn6       2.18671      .   S
    O128   Zn11      2.18649      .   S
    O129   Zn12      2.18647      .   S
    O130   Zn13      2.18647      .   S
    O131   Zn14      2.18647      .   S
    O144   Zn19      2.18644      .   S
    O145   Zn20      2.18682      .   S
    O146   Zn21      2.18646      .   S
    O147   Zn22      2.18682      .   S
    O168   Zn27      2.18777      .   S
    O169   Zn28      2.18793      .   S
    O170   Zn29      2.18779      .   S
    O171   Zn30      2.18792      .   S
    Zn0    Ts176     0.64364      .   S
    Zn1    Ts177     0.64364      .   S
    Zn2    Ts178     0.64364      .   S
    Zn3    Ts179     0.67820      .   S
    Zn4    Ts180     0.67824      .   S
    Zn5    Ts181     0.67820      .   S
    Zn6    Ts182     0.67824      .   S
    Zn7    Ts183     0.64362      .   S
    Zn8    Ts184     0.64362      .   S
    Zn9    Ts185     0.64362      .   S
    Zn10   Ts186     0.64361      .   S
    Zn11   Ts187     0.67731      .   S
    Zn12   Ts188     0.67730      .   S
    Zn13   Ts189     0.67731      .   S
    Zn14   Ts190     0.67730      .   S
    Zn15   Ts191     0.64373      .   S
    Zn16   Ts192     0.64374      .   S
    Zn17   Ts193     0.64373      .   S
    Zn18   Ts194     0.64374      .   S
    Zn19   Ts195     0.67826      .   S
    Zn20   Ts196     0.67726      .   S
    Zn21   Ts197     0.67826      .   S
    Zn22   Ts198     0.67726      .   S
    Zn23   Ts199     0.64396      .   S
    Zn24   Ts200     0.64397      .   S
    Zn25   Ts201     0.64396      .   S
    Zn26   Ts202     0.64397      .   S
    Zn27   Ts203     0.67732      .   S
    Zn28   Ts204     0.67730      .   S
    Zn29   Ts205     0.67732      .   S
    Zn30   Ts206     0.67730      .   S
    Zn31   Ts207     0.64364      .   S
    C32    Og208     0.49909      .   S
    C33    Og209     0.49867      .   S
    C34    Og210     0.49909      .   S
    C35    Og211     0.49867      .   S
    C36    Og212     0.49913      .   S
    C37    Og213     0.49904      .   S
    C38    Og214     0.49914      .   S
    C39    Og215     0.49904      .   S
    C40    Og216     0.50977      .   S
    C41    Og217     0.50963      .   S
    C42    Og218     0.50977      .   S
    C43    Og219     0.50976      .   S
    C52    Og220     0.49908      .   S
    C53    Og221     0.49907      .   S
    C54    Og222     0.49908      .   S
    C55    Og223     0.49908      .   S
    C56    Og224     0.49910      .   S
    C57    Og225     0.49917      .   S
    C58    Og226     0.49910      .   S
    C59    Og227     0.49917      .   S
    C60    Og228     0.50984      .   S
    C61    Og229     0.50987      .   S
    C62    Og230     0.50984      .   S
    C63    Og231     0.50987      .   S
    C64    Og232     0.49909      .   S
    C65    Og233     0.49910      .   S
    C66    Og234     0.49909      .   S
    C67    Og235     0.49910      .   S
    C68    Og236     0.49954      .   S
    C69    Og237     0.49911      .   S
    C70    Og238     0.49954      .   S
    C71    Og239     0.49911      .   S
    C72    Og240     0.50987      .   S
    C73    Og241     0.50987      .   S
    C74    Og242     0.50987      .   S
    C75    Og243     0.50987      .   S
    C76    Og244     0.49903      .   S
    C77    Og245     0.49909      .   S
    C78    Og246     0.49903      .   S
    C79    Og247     0.49909      .   S
    C80    Og248     0.49907      .   S
    C81    Og249     0.49911      .   S
    C82    Og250     0.49907      .   S
    C83    Og251     0.49912      .   S
    C84    Og252     0.50988      .   S
    C85    Og253     0.50999      .   S
    C86    Og254     0.50987      .   S
    C87    Og255     0.50999      .   S
