# CIF file generated by openbabel 2.4.90, see http://openbabel.sf.net
data_I
_chemical_name_common ''
_cell_length_a 20.75
_cell_length_b 25.128
_cell_length_c 20.218
_cell_angle_alpha 90.024
_cell_angle_beta 89.988
_cell_angle_gamma 90.036
_space_group_name_H-M_alt 'P 1'
_space_group_name_Hall 'P 1'
loop_
    _symmetry_equiv_pos_as_xyz
    x,y,z
loop_
    _atom_site_label
    _atom_site_type_symbol
    _atom_site_fract_x
    _atom_site_fract_y
    _atom_site_fract_z
    _atom_site_occupancy
    C0      C    0.38271   0.27993   0.89918   1.000
    C1      C    0.38272   0.77997   0.89910   1.000
    C2      C    0.88271   0.27994   0.89918   1.000
    C3      C    0.88272   0.77997   0.89910   1.000
    C4      C    0.36485   0.22110   0.62258   1.000
    C5      C    0.36486   0.72114   0.62256   1.000
    C6      C    0.86485   0.22110   0.62258   1.000
    C7      C    0.86486   0.72114   0.62256   1.000
    C8      C    0.41906   0.41736   0.99010   1.000
    C9      C    0.41905   0.91737   0.99000   1.000
    C10     C    0.91906   0.41736   0.99010   1.000
    C11     C    0.91905   0.91737   0.99009   1.000
    C12     C    0.36723   0.22014   0.39916   1.000
    C13     C    0.36723   0.72015   0.39916   1.000
    C14     C    0.86723   0.22014   0.39916   1.000
    C15     C    0.86723   0.72015   0.39916   1.000
    C16     C    0.38513   0.27895   0.12260   1.000
    C17     C    0.38513   0.77895   0.12259   1.000
    C18     C    0.88513   0.27895   0.12260   1.000
    C19     C    0.88513   0.77895   0.12259   1.000
    C20     C    0.33096   0.08270   0.48971   1.000
    C21     C    0.33096   0.58271   0.48972   1.000
    C22     C    0.83096   0.08270   0.48971   1.000
    C23     C    0.83096   0.58271   0.48972   1.000
    C24     C    0.11701   0.02989   0.60088   1.000
    C25     C    0.11702   0.52987   0.60086   1.000
    C26     C    0.61701   0.02989   0.60088   1.000
    C27     C    0.61702   0.52987   0.60086   1.000
    C28     C    0.13525   0.47081   0.87731   1.000
    C29     C    0.13523   0.97090   0.87735   1.000
    C30     C    0.63525   0.47081   0.87731   1.000
    C31     C    0.63523   0.97090   0.87735   1.000
    C32     C    0.08101   0.16731   0.51031   1.000
    C33     C    0.08101   0.66732   0.51030   1.000
    C34     C    0.58101   0.16731   0.51031   1.000
    C35     C    0.58101   0.66732   0.51030   1.000
    C36     C    0.13270   0.47019   0.10083   1.000
    C37     C    0.13271   0.97019   0.10083   1.000
    C38     C    0.63271   0.47019   0.10083   1.000
    C39     C    0.63271   0.97019   0.10083   1.000
    C40     C    0.11480   0.02895   0.37743   1.000
    C41     C    0.11479   0.52895   0.37743   1.000
    C42     C    0.61480   0.02895   0.37743   1.000
    C43     C    0.61479   0.52896   0.37743   1.000
    C44     C    0.16901   0.33269   0.01026   1.000
    C45     C    0.16900   0.83271   0.01020   1.000
    C46     C    0.66901   0.33269   0.01026   1.000
    C47     C    0.66900   0.83271   0.01020   1.000
