# CIF file generated by openbabel 2.4.90, see http://openbabel.sf.net
data_I
_chemical_name_common ''
_cell_length_a 20.75
_cell_length_b 25.128
_cell_length_c 20.218
_cell_angle_alpha 90.024
_cell_angle_beta 89.988
_cell_angle_gamma 90.036
_space_group_name_H-M_alt 'P 1'
_space_group_name_Hall 'P 1'
loop_
    _symmetry_equiv_pos_as_xyz
    x,y,z
loop_
    _atom_site_label
    _atom_site_type_symbol
    _atom_site_fract_x
    _atom_site_fract_y
    _atom_site_fract_z
    _atom_site_occupancy
    Zr0     Zr   0.46629   0.30343   0.01119   1.000
    Zr1     Zr   0.46628   0.80344   0.01119   1.000
    Zr2     Zr   0.96629   0.30343   0.01119   1.000
    Zr3     Zr   0.96628   0.80344   0.01119   1.000
    Zr4     Zr   0.31415   0.33825   0.01123   1.000
    Zr5     Zr   0.31414   0.83826   0.01123   1.000
    Zr6     Zr   0.81415   0.33825   0.01123   1.000
    Zr7     Zr   0.81414   0.83826   0.01123   1.000
    Zr8     Zr   0.28372   0.19656   0.51119   1.000
    Zr9     Zr   0.28372   0.69657   0.51119   1.000
    Zr10    Zr   0.78372   0.19656   0.51119   1.000
    Zr11    Zr   0.78372   0.69657   0.51119   1.000
    Zr12    Zr   0.43584   0.16184   0.51111   1.000
    Zr13    Zr   0.43583   0.66185   0.51111   1.000
    Zr14    Zr   0.93584   0.16184   0.51111   1.000
    Zr15    Zr   0.93583   0.66185   0.51111   1.000
    Zr16    Zr   0.03365   0.05346   0.48881   1.000
    Zr17    Zr   0.03365   0.55346   0.48881   1.000
    Zr18    Zr   0.53365   0.05346   0.48881   1.000
    Zr19    Zr   0.53365   0.55346   0.48881   1.000
    Zr20    Zr   0.18581   0.08816   0.48800   1.000
    Zr21    Zr   0.18581   0.58817   0.48890   1.000
    Zr22    Zr   0.68581   0.08816   0.48800   1.000
    Zr23    Zr   0.68581   0.58817   0.48890   1.000
    Zr24    Zr   0.21635   0.44654   0.98889   1.000
    Zr25    Zr   0.21634   0.94656   0.98888   1.000
    Zr26    Zr   0.71635   0.44654   0.98889   1.000
    Zr27    Zr   0.71634   0.94656   0.98888   1.000
    Zr28    Zr   0.06417   0.41181   0.98887   1.000
    Zr29    Zr   0.06416   0.91182   0.98887   1.000
    Zr30    Zr   0.56417   0.41181   0.98887   1.000
    Zr31    Zr   0.56416   0.91182   0.98887   1.000
    N32     N    0.62374   0.99941   0.23917   1.000
    N33     N    0.90221   0.04448   0.42951   1.000
    O34     O    0.94646   0.05626   0.46069   1.000
    O35     O    0.92201   0.08336   0.46627   1.000
    N36     N    0.12374   0.99941   0.23917   1.000
    N37     N    0.87378   0.25074   0.76082   1.000
    N38     N    0.59758   0.29448   0.07034   1.000
    O39     O    0.55341   0.30624   0.03917   1.000
    O40     O    0.57788   0.33334   0.03359   1.000
    N41     N    0.84746   0.45555   0.93044   1.000
    O42     O    0.82785   0.41678   0.96722   1.000
    O43     O    0.80340   0.44385   0.96164   1.000
    N44     N    0.12374   0.49941   0.23916   1.000
    N45     N    0.09758   0.29448   0.07034   1.000
    O46     O    0.05341   0.30624   0.03917   1.000
    O47     O    0.07788   0.33334   0.03359   1.000
    N48     N    0.09757   0.79458   0.07043   1.000
    O49     O    0.05340   0.80630   0.03922   1.000
    O50     O    0.07787   0.83340   0.03364   1.000
    N51     N    0.62613   0.50051   0.73911   1.000
    N52     N    0.12611   0.00059   0.73915   1.000
    N53     N    0.34746   0.45555   0.93044   1.000
    O54     O    0.32785   0.41678   0.96722   1.000
    O55     O    0.30340   0.44385   0.96164   1.000
    N56     N    0.37381   0.75082   0.76079   1.000
    N57     N    0.90220   0.54448   0.42951   1.000
    O58     O    0.94646   0.55627   0.46070   1.000
    O59     O    0.92200   0.58336   0.46627   1.000
    N60     N    0.40220   0.04448   0.42951   1.000
    O61     O    0.44646   0.05626   0.46069   1.000
    O62     O    0.42201   0.08336   0.46627   1.000
    N63     N    0.87620   0.24939   0.26084   1.000
    N64     N    0.59757   0.79458   0.07043   1.000
    O65     O    0.55340   0.80630   0.03922   1.000
    O66     O    0.57787   0.83340   0.03364   1.000
    N67     N    0.62374   0.49941   0.23916   1.000
    N68     N    0.65234   0.70556   0.57044   1.000
    O69     O    0.69656   0.69377   0.53927   1.000
    O70     O    0.67208   0.66667   0.53370   1.000
    N71     N    0.87619   0.74939   0.26084   1.000
    N72     N    0.37620   0.24939   0.26084   1.000
    N73     N    0.62611   0.00059   0.73915   1.000
    N74     N    0.84745   0.95554   0.93043   1.000
    O75     O    0.82784   0.91678   0.96722   1.000
    O76     O    0.80339   0.94386   0.96163   1.000
    N77     N    0.37619   0.74939   0.26084   1.000
    N78     N    0.15235   0.20551   0.57049   1.000
    O79     O    0.19657   0.19374   0.53929   1.000
    O80     O    0.17209   0.16664   0.53350   1.000
    N81     N    0.87381   0.75082   0.76079   1.000
    N82     N    0.15234   0.70556   0.57044   1.000
    O83     O    0.19656   0.69377   0.53927   1.000
    O84     O    0.17208   0.66667   0.53370   1.000
    N85     N    0.34745   0.95554   0.93042   1.000
    O86     O    0.32784   0.91678   0.96721   1.000
    O87     O    0.30339   0.94386   0.96163   1.000
    N88     N    0.37378   0.25073   0.76083   1.000
    N89     N    0.12613   0.50051   0.73911   1.000
    N90     N    0.65235   0.20551   0.57049   1.000
    O91     O    0.69657   0.19374   0.53929   1.000
    O92     O    0.67209   0.16664   0.53350   1.000
    N93     N    0.40220   0.54448   0.42951   1.000
    O94     O    0.44646   0.55627   0.46070   1.000
    O95     O    0.42200   0.58336   0.46627   1.000
    C96     C    0.86322   0.21699   0.60419   1.000
    O97     O    0.83032   0.21539   0.57814   1.000
    O98     O    0.89400   0.19867   0.57912   1.000
    O99     O    0.86686   0.22846   0.65684   1.000
    C100    C    0.11318   0.03303   0.39567   1.000
    O101    O    0.14397   0.05135   0.42057   1.000
    O102    O    0.08027   0.03463   0.42170   1.000
    O103    O    0.11681   0.02161   0.34309   1.000
    C104    C    0.11550   0.03405   0.58266   1.000
    O105    O    0.11913   0.02267   0.63525   1.000
    O106    O    0.08187   0.03571   0.55659   1.000
    O107    O    0.14587   0.05180   0.55705   1.000
    C108    C    0.61550   0.03405   0.58266   1.000
    O109    O    0.58187   0.03571   0.55659   1.000
    O110    O    0.64587   0.05180   0.55705   1.000
    O111    O    0.61913   0.02267   0.63525   1.000
    C112    C    0.36322   0.21699   0.60435   1.000
    O113    O    0.36686   0.22846   0.65692   1.000
    O114    O    0.33032   0.21539   0.57832   1.000
    O115    O    0.39400   0.19867   0.57922   1.000
    C116    C    0.81565   0.09088   0.49390   1.000
    O117    O    0.84890   0.07352   0.47467   1.000
    O118    O    0.77378   0.08258   0.48840   1.000
    O119    O    0.81326   0.12696   0.50329   1.000
    O120    O    0.85129   0.11828   0.50327   1.000
    C121    C    0.56570   0.15913   0.50611   1.000
    O122    O    0.52382   0.16742   0.51138   1.000
    O123    O    0.56327   0.12305   0.49671   1.000
    O124    O    0.60131   0.13173   0.49650   1.000
    O125    O    0.59898   0.17648   0.52534   1.000
    C126    C    0.06570   0.15913   0.50611   1.000
    O127    O    0.09898   0.17648   0.52534   1.000
    O128    O    0.06327   0.12305   0.49671   1.000
    O129    O    0.10131   0.13173   0.49650   1.000
    O130    O    0.02382   0.16742   0.51138   1.000
    C131    C    0.61318   0.03303   0.39567   1.000
    O132    O    0.58027   0.03463   0.42170   1.000
    O133    O    0.64397   0.05135   0.42057   1.000
    O134    O    0.61681   0.02161   0.34309   1.000
    C135    C    0.86572   0.21600   0.41738   1.000
    O136    O    0.89602   0.19821   0.44275   1.000
    O137    O    0.86931   0.22735   0.36479   1.000
    O138    O    0.83207   0.21435   0.44346   1.000
    C139    C    0.31565   0.09088   0.49390   1.000
    O140    O    0.27378   0.08258   0.48840   1.000
    O141    O    0.34890   0.07352   0.47467   1.000
    O142    O    0.31326   0.12696   0.50329   1.000
    O143    O    0.35129   0.11828   0.50327   1.000
    C144    C    0.36572   0.21600   0.41738   1.000
    O145    O    0.39602   0.19821   0.44275   1.000
    O146    O    0.36931   0.22735   0.36479   1.000
    O147    O    0.33207   0.21435   0.44346   1.000
    C148    C    0.61550   0.53403   0.58265   1.000
    O149    O    0.58188   0.53570   0.55658   1.000
    O150    O    0.61914   0.52264   0.63522   1.000
    O151    O    0.64587   0.55180   0.55727   1.000
    C152    C    0.31565   0.59088   0.49390   1.000
    O153    O    0.34889   0.57353   0.47467   1.000
    O154    O    0.27377   0.58259   0.48863   1.000
    O155    O    0.31326   0.62697   0.50329   1.000
    O156    O    0.35129   0.61829   0.50327   1.000
    C157    C    0.81565   0.59088   0.49390   1.000
    O158    O    0.84889   0.57353   0.47467   1.000
    O159    O    0.81326   0.62697   0.50329   1.000
    O160    O    0.85129   0.61829   0.50327   1.000
    O161    O    0.77377   0.58259   0.48863   1.000
    C162    C    0.86323   0.71702   0.60434   1.000
    O163    O    0.86687   0.72851   0.65690   1.000
    O164    O    0.83032   0.71542   0.57831   1.000
    O165    O    0.89400   0.69869   0.57921   1.000
    C166    C    0.11318   0.53305   0.39567   1.000
    O167    O    0.14397   0.55136   0.42079   1.000
    O168    O    0.08026   0.53464   0.42169   1.000
    O169    O    0.11681   0.52162   0.34308   1.000
    C170    C    0.11550   0.53403   0.58265   1.000
    O171    O    0.08188   0.53570   0.55658   1.000
    O172    O    0.14587   0.55180   0.55727   1.000
    O173    O    0.11913   0.52264   0.63522   1.000
    C174    C    0.36572   0.71600   0.41738   1.000
    O175    O    0.39602   0.69822   0.44275   1.000
    O176    O    0.33207   0.71435   0.44346   1.000
    O177    O    0.36931   0.72735   0.36479   1.000
    C178    C    0.36323   0.71702   0.60434   1.000
    O179    O    0.39400   0.69869   0.57921   1.000
    O180    O    0.36687   0.72851   0.65690   1.000
    O181    O    0.33032   0.71542   0.57831   1.000
    C182    C    0.06570   0.65914   0.50612   1.000
    O183    O    0.09897   0.67650   0.52533   1.000
    O184    O    0.06327   0.62306   0.49672   1.000
    O185    O    0.10131   0.63173   0.49675   1.000
    O186    O    0.02382   0.66743   0.51139   1.000
    C187    C    0.86572   0.71600   0.41738   1.000
    O188    O    0.86931   0.72735   0.36479   1.000
    O189    O    0.89602   0.69822   0.44275   1.000
    O190    O    0.83207   0.71435   0.44346   1.000
    C191    C    0.61318   0.53305   0.39567   1.000
    O192    O    0.61681   0.52162   0.34308   1.000
    O193    O    0.58026   0.53464   0.42169   1.000
    O194    O    0.64397   0.55136   0.42079   1.000
    C195    C    0.56570   0.65914   0.50612   1.000
    O196    O    0.52382   0.66743   0.51139   1.000
    O197    O    0.59897   0.67650   0.52533   1.000
    O198    O    0.56327   0.62306   0.49672   1.000
    O199    O    0.60131   0.63173   0.49675   1.000
    C200    C    0.43437   0.40914   0.99408   1.000
    O201    O    0.47623   0.41742   0.98874   1.000
    O202    O    0.40103   0.42653   0.97517   1.000
    O203    O    0.43676   0.37304   0.00340   1.000
    O204    O    0.39873   0.38174   0.00341   1.000
    C205    C    0.88421   0.28407   0.91741   1.000
    O206    O    0.91787   0.28568   0.94348   1.000
    O207    O    0.88064   0.27274   0.86479   1.000
    O208    O    0.85393   0.30188   0.94280   1.000
    C209    C    0.88676   0.28304   0.10436   1.000
    O210    O    0.88313   0.27160   0.15694   1.000
    O211    O    0.91968   0.28463   0.07833   1.000
    O212    O    0.85598   0.30137   0.07926   1.000
    C213    C    0.18432   0.34087   0.00609   1.000
    O214    O    0.15102   0.32351   0.02527   1.000
    O215    O    0.22619   0.33260   0.01140   1.000
    O216    O    0.18675   0.37695   0.99673   1.000
    O217    O    0.14870   0.36826   0.99672   1.000
    C218    C    0.38676   0.28304   0.10436   1.000
    O219    O    0.35598   0.30137   0.07926   1.000
    O220    O    0.41968   0.28463   0.07833   1.000
    O221    O    0.38313   0.27160   0.15694   1.000
    C222    C    0.68432   0.34087   0.00609   1.000
    O223    O    0.65102   0.32351   0.02527   1.000
    O224    O    0.68675   0.37695   0.99673   1.000
    O225    O    0.64871   0.36826   0.99672   1.000
    O226    O    0.72619   0.33260   0.01140   1.000
    C227    C    0.93437   0.40914   0.99408   1.000
    O228    O    0.93677   0.37304   0.00340   1.000
    O229    O    0.89873   0.38174   0.00341   1.000
    O230    O    0.97623   0.41742   0.98874   1.000
    O231    O    0.90103   0.42653   0.97517   1.000
    C232    C    0.38421   0.28407   0.91741   1.000
    O233    O    0.35393   0.30188   0.94280   1.000
    O234    O    0.41787   0.28568   0.94348   1.000
    O235    O    0.38064   0.27274   0.86480   1.000
    C236    C    0.63420   0.46604   0.08257   1.000
    O237    O    0.60393   0.44822   0.05720   1.000
    O238    O    0.66788   0.46440   0.05653   1.000
    O239    O    0.63062   0.47739   0.13519   1.000
    C240    C    0.13688   0.46670   0.89553   1.000
    O241    O    0.16981   0.46511   0.92158   1.000
    O242    O    0.13319   0.47819   0.84297   1.000
    O243    O    0.10605   0.44850   0.92071   1.000
    C244    C    0.13420   0.46604   0.08260   1.000
    O245    O    0.13062   0.47739   0.13521   1.000
    O246    O    0.16788   0.46440   0.05654   1.000
    O247    O    0.10393   0.44822   0.05724   1.000
    C248    C    0.63688   0.46670   0.89553   1.000
    O249    O    0.63319   0.47819   0.84297   1.000
    O250    O    0.66981   0.46511   0.92158   1.000
    O251    O    0.60605   0.44850   0.92071   1.000
    C252    C    0.43436   0.90915   0.99405   1.000
    O253    O    0.47622   0.91743   0.98872   1.000
    O254    O    0.39872   0.88175   0.00339   1.000
    O255    O    0.43676   0.87305   0.00338   1.000
    O256    O    0.40102   0.92653   0.97513   1.000
    C257    C    0.88676   0.78304   0.10436   1.000
    O258    O    0.88312   0.77161   0.15694   1.000
    O259    O    0.85597   0.80137   0.07926   1.000
    O260    O    0.91967   0.78464   0.07833   1.000
    C261    C    0.88421   0.78409   0.91738   1.000
    O262    O    0.91787   0.78570   0.94346   1.000
    O263    O    0.85393   0.80189   0.94278   1.000
    O264    O    0.88065   0.77279   0.86476   1.000
    C265    C    0.38421   0.78409   0.91738   1.000
    O266    O    0.35393   0.80189   0.94278   1.000
    O267    O    0.38065   0.77279   0.86476   1.000
    O268    O    0.41787   0.78570   0.94346   1.000
    C269    C    0.38676   0.78304   0.10436   1.000
    O270    O    0.38312   0.77161   0.15694   1.000
    O271    O    0.35597   0.80137   0.07926   1.000
    O272    O    0.41967   0.78464   0.07833   1.000
    C273    C    0.68432   0.84088   0.00607   1.000
    O274    O    0.72618   0.83261   0.01139   1.000
    O275    O    0.68675   0.87696   0.99671   1.000
    O276    O    0.64870   0.86828   0.99670   1.000
    O277    O    0.65102   0.82355   0.02528   1.000
    C278    C    0.13420   0.96605   0.08260   1.000
    O279    O    0.13062   0.97739   0.13521   1.000
    O280    O    0.10392   0.94823   0.05724   1.000
    O281    O    0.16788   0.96440   0.05654   1.000
    C282    C    0.13687   0.96679   0.89556   1.000
    O283    O    0.16980   0.96520   0.92160   1.000
    O284    O    0.13318   0.97827   0.84302   1.000
    O285    O    0.10604   0.94855   0.92073   1.000
    C286    C    0.93436   0.90915   0.99408   1.000
    O287    O    0.93676   0.87305   0.00339   1.000
    O288    O    0.89872   0.88175   0.00340   1.000
    O289    O    0.90102   0.92653   0.97516   1.000
    O290    O    0.97622   0.91743   0.98873   1.000
    C291    C    0.18432   0.84088   0.00607   1.000
    O292    O    0.22618   0.83261   0.01139   1.000
    O293    O    0.18675   0.87696   0.99671   1.000
    O294    O    0.14870   0.86828   0.99670   1.000
    O295    O    0.15102   0.82355   0.02528   1.000
    C296    C    0.63420   0.96605   0.08260   1.000
    O297    O    0.66788   0.96440   0.05654   1.000
    O298    O    0.60392   0.94823   0.05724   1.000
    O299    O    0.63062   0.97739   0.13521   1.000
    C300    C    0.63687   0.96679   0.89556   1.000
    O301    O    0.63318   0.97827   0.84302   1.000
    O302    O    0.60604   0.94855   0.92073   1.000
    O303    O    0.66980   0.96520   0.92160   1.000
loop_
    _geom_bond_atom_site_label_1
    _geom_bond_atom_site_label_2
    _geom_bond_distance
    _geom_bond_site_symmetry_2
    _ccdc_geom_bond_type
    N33    O34       1.15253      .   S
    Zr16   O34       1.89788  1_455   S
    N33    O35       1.29417      .   S
    Zr14   O35       2.18890      .   S
    N38    O39       1.15127      .   S
    Zr0    O39       1.89561      .   S
    N38    O40       1.29379      .   S
    Zr30   O40       2.18835  1_556   S
    N41    O42       1.29141      .   S
    Zr6    O42       2.18330  1_554   S
    N41    O43       1.14886      .   S
    Zr26   O43       1.88956      .   S
    N45    O46       1.15127      .   S
    Zr2    O46       1.89561  1_655   S
    N45    O47       1.29379      .   S
    Zr28   O47       2.18836  1_556   S
    N48    O49       1.15139      .   S
    Zr3    O49       1.89587  1_655   S
    N48    O50       1.29340      .   S
    Zr29   O50       2.18768  1_556   S
    N53    O54       1.29140      .   S
    Zr4    O54       2.18329  1_554   S
    N53    O55       1.14886      .   S
    Zr24   O55       1.88956      .   S
    N57    O58       1.15257      .   S
    Zr17   O58       1.89792  1_455   S
    N57    O59       1.29424      .   S
    Zr15   O59       2.18898      .   S
    N60    O61       1.15253      .   S
    Zr18   O61       1.89789      .   S
    N60    O62       1.29417      .   S
    Zr12   O62       2.18891      .   S
    N64    O65       1.15139      .   S
    Zr1    O65       1.89587      .   S
    N64    O66       1.29340      .   S
    Zr31   O66       2.18768  1_556   S
    N68    O69       1.15190      .   S
    Zr11   O69       1.89673      .   S
    N68    O70       1.29413      .   S
    Zr23   O70       2.18890      .   S
    N74    O75       1.29128      .   S
    Zr7    O75       2.18321  1_554   S
    N74    O76       1.14877      .   S
    Zr27   O76       1.88953      .   S
    N78    O79       1.15200      .   S
    Zr8    O79       1.89688      .   S
    N78    O80       1.29658      .   S
    Zr20   O80       2.19426      .   S
    N82    O83       1.15190      .   S
    Zr9    O83       1.89674      .   S
    N82    O84       1.29413      .   S
    Zr21   O84       2.18891      .   S
    N85    O86       1.29133      .   S
    Zr5    O86       2.18325  1_554   S
    N85    O87       1.14882      .   S
    Zr25   O87       1.88955      .   S
    N90    O91       1.15200      .   S
    Zr10   O91       1.89688      .   S
    N90    O92       1.29658      .   S
    Zr22   O92       2.19427      .   S
    N93    O94       1.15258      .   S
    Zr19   O94       1.89792      .   S
    N93    O95       1.29425      .   S
    Zr13   O95       2.18898      .   S
    C96    O97       0.86333      .   S
    Zr10   O97       1.72933      .   S
    C96    O98       0.93640      .   S
    Zr14   O98       1.87086      .   S
    C96    O99       1.10526      .   S
    N37    O99       2.17995      .   S
    C100   O101      0.93437      .   S
    Zr20   O101      1.86178      .   S
    C100   O102      0.86310      .   S
    Zr16   O102      1.73205      .   S
    C100   O103      1.10367      .   S
    N36    O103      2.17832  1_565   S
    C104   O105      1.10356      .   S
    N52    O105      2.17802      .   S
    C104   O106      0.87559      .   S
    Zr16   O106      1.75491      .   S
    C104   O107      0.92947      .   S
    Zr20   O107      1.86294      .   S
    C108   O109      0.87559      .   S
    Zr18   O109      1.75492      .   S
    C108   O110      0.92947      .   S
    Zr22   O110      1.86294      .   S
    C108   O111      1.10356      .   S
    N73    O111      2.17802      .   S
    C112   O113      1.10373      .   S
    N88    O113      2.17848      .   S
    C112   O114      0.86308      .   S
    Zr8    O114      1.73216      .   S
    C112   O115      0.93706      .   S
    Zr12   O115      1.87235      .   S
    C116   O117      0.90407      .   S
    N33    O117      1.60926      .   S
    C116   O118      0.90039      .   S
    Zr22   O118      1.83069      .   S
    C116   O119      0.92766      .   S
    Zr10   O119      1.86034      .   S
    C116   O120      1.02773      .   S
    Zr14   O120      2.07328      .   S
    C121   O122      0.90004      .   S
    Zr12   O122      1.83101      .   S
    C121   O123      0.92757      .   S
    Zr18   O123      1.86002      .   S
    C121   O124      1.02876      .   S
    Zr22   O124      2.07474      .   S
    C121   O125      0.90426      .   S
    N90    O125      1.60964      .   S
    C126   O127      0.90426      .   S
    N78    O127      1.60964      .   S
    C126   O128      0.92757      .   S
    Zr16   O128      1.86002      .   S
    C126   O129      1.02876      .   S
    Zr20   O129      2.07473      .   S
    C126   O130      0.90004      .   S
    Zr14   O130      1.83101  1_655   S
    C131   O132      0.86310      .   S
    Zr18   O132      1.73205      .   S
    C131   O133      0.93437      .   S
    Zr22   O133      1.86179      .   S
    C131   O134      1.10367      .   S
    N32    O134      2.17832  1_565   S
    C135   O136      0.92661      .   S
    Zr14   O136      1.85220      .   S
    C135   O137      1.10360      .   S
    N63    O137      2.17809      .   S
    C135   O138      0.87578      .   S
    Zr10   O138      1.75525      .   S
    C139   O140      0.90040      .   S
    Zr20   O140      1.83069      .   S
    C139   O141      0.90408      .   S
    N60    O141      1.60925      .   S
    C139   O142      0.92766      .   S
    Zr8    O142      1.86033      .   S
    C139   O143      1.02773      .   S
    Zr12   O143      2.07329      .   S
    C144   O145      0.92661      .   S
    Zr12   O145      1.85221      .   S
    C144   O146      1.10360      .   S
    N72    O146      2.17809      .   S
    C144   O147      0.87578      .   S
    Zr8    O147      1.75525      .   S
    C148   O149      0.87558      .   S
    Zr19   O149      1.75490      .   S
    C148   O150      1.10353      .   S
    N51    O150      2.17797      .   S
    C148   O151      0.92693      .   S
    Zr23   O151      1.85271      .   S
    C152   O153      0.90409      .   S
    N93    O153      1.60925      .   S
    C152   O154      0.89985      .   S
    Zr21   O154      1.83068      .   S
    C152   O155      0.92765      .   S
    Zr9    O155      1.86032      .   S
    C152   O156      1.02772      .   S
    Zr13   O156      2.07328      .   S
    C157   O158      0.90409      .   S
    N57    O158      1.60926      .   S
    C157   O159      0.92765      .   S
    Zr11   O159      1.86032      .   S
    C157   O160      1.02772      .   S
    Zr15   O160      2.07328      .   S
    C157   O161      0.89985      .   S
    Zr23   O161      1.83068      .   S
    C162   O163      1.10369      .   S
    N81    O163      2.17849      .   S
    C162   O164      0.86307      .   S
    Zr11   O164      1.73215      .   S
    C162   O165      0.93705      .   S
    Zr15   O165      1.87230      .   S
    C166   O167      0.93684      .   S
    Zr21   O167      1.87180      .   S
    C166   O168      0.86309      .   S
    Zr17   O168      1.73208      .   S
    C166   O169      1.10370      .   S
    N44    O169      2.17838      .   S
    C170   O171      0.87558      .   S
    Zr17   O171      1.75490      .   S
    C170   O172      0.92692      .   S
    Zr21   O172      1.85271      .   S
    C170   O173      1.10351      .   S
    N89    O173      2.17793      .   S
    C174   O175      0.92661      .   S
    Zr13   O175      1.85220      .   S
    C174   O176      0.87577      .   S
    Zr9    O176      1.75523      .   S
    C174   O177      1.10361      .   S
    N77    O177      2.17813      .   S
    C178   O179      0.93705      .   S
    Zr13   O179      1.87230      .   S
    C178   O180      1.10369      .   S
    N56    O180      2.17849      .   S
    C178   O181      0.86307      .   S
    Zr9    O181      1.73215      .   S
    C182   O183      0.90419      .   S
    N82    O183      1.60954      .   S
    C182   O184      0.92757      .   S
    Zr17   O184      1.86008      .   S
    C182   O185      1.02790      .   S
    Zr21   O185      2.07367      .   S
    C182   O186      0.90002      .   S
    Zr15   O186      1.83101  1_655   S
    C187   O188      1.10361      .   S
    N71    O188      2.17813      .   S
    C187   O189      0.92660      .   S
    Zr15   O189      1.85219      .   S
    C187   O190      0.87577      .   S
    Zr11   O190      1.75524      .   S
    C191   O192      1.10370      .   S
    N67    O192      2.17838      .   S
    C191   O193      0.86309      .   S
    Zr19   O193      1.73208      .   S
    C191   O194      0.93684      .   S
    Zr23   O194      1.87180      .   S
    C195   O196      0.90002      .   S
    Zr13   O196      1.83101      .   S
    C195   O197      0.90419      .   S
    N68    O197      1.60954      .   S
    C195   O198      0.92757      .   S
    Zr19   O198      1.86008      .   S
    C195   O199      1.02790      .   S
    Zr23   O199      2.07367      .   S
    C200   O201      0.89956      .   S
    Zr30   O201      1.83028      .   S
    C200   O202      0.90350      .   S
    N53    O202      1.60843      .   S
    C200   O203      0.92789  1_556   S
    Zr0    O203      1.86036      .   S
    C200   O204      1.02746  1_556   S
    Zr4    O204      2.07302      .   S
    C205   O206      0.87596      .   S
    Zr2    O206      1.75557  1_554   S
    C205   O207      1.10359      .   S
    N37    O207      2.17810      .   S
    C205   O208      0.92656      .   S
    Zr6    O208      1.85210  1_554   S
    C209   O210      1.10379      .   S
    N63    O210      2.17859      .   S
    C209   O211      0.86314      .   S
    Zr2    O211      1.73222      .   S
    C209   O212      0.93723      .   S
    Zr6    O212      1.87264      .   S
    C213   O214      0.90425      .   S
    N45    O214      1.60969      .   S
    C213   O215      0.89977      .   S
    Zr4    O215      1.83065      .   S
    C213   O216      0.92755  1_554   S
    Zr24   O216      1.86001      .   S
    C213   O217      1.02799  1_554   S
    Zr28   O217      2.07420      .   S
    C218   O219      0.93723      .   S
    Zr4    O219      1.87264      .   S
    C218   O220      0.86314      .   S
    Zr0    O220      1.73222      .   S
    C218   O221      1.10379      .   S
    N72    O221      2.17859      .   S
    C222   O223      0.90425      .   S
    N38    O223      1.60970      .   S
    C222   O224      0.92755  1_554   S
    Zr26   O224      1.86001      .   S
    C222   O225      1.02799  1_554   S
    Zr30   O225      2.07421      .   S
    C222   O226      0.89977      .   S
    Zr6    O226      1.83064      .   S
    C227   O228      0.92789  1_556   S
    Zr2    O228      1.86036      .   S
    C227   O229      1.02746  1_556   S
    Zr6    O229      2.07303      .   S
    C227   O230      0.89956      .   S
    Zr28   O230      1.83027  1_455   S
    C227   O231      0.90351      .   S
    N41    O231      1.60843      .   S
    C232   O233      0.92657      .   S
    Zr4    O233      1.85210  1_554   S
    C232   O234      0.87596      .   S
    Zr0    O234      1.75558  1_554   S
    C232   O235      1.10357      .   S
    N88    O235      2.17801      .   S
    C236   O237      0.92622      .   S
    Zr30   O237      1.85064  1_556   S
    C236   O238      0.87586      .   S
    Zr26   O238      1.75561  1_556   S
    C236   O239      1.10381      .   S
    N67    O239      2.17819      .   S
    C240   O241      0.86381      .   S
    Zr24   O241      1.73313      .   S
    C240   O242      1.10394      .   S
    N89    O242      2.17859      .   S
    C240   O243      0.93671      .   S
    Zr28   O243      1.87189      .   S
    C244   O245      1.10352      .   S
    N44    O245      2.17790      .   S
    C244   O246      0.87605      .   S
    Zr24   O246      1.75585  1_556   S
    C244   O247      0.92613      .   S
    Zr28   O247      1.85120  1_556   S
    C248   O249      1.10393      .   S
    N51    O249      2.17855      .   S
    C248   O250      0.86380      .   S
    Zr26   O250      1.73312      .   S
    C248   O251      0.93671      .   S
    Zr30   O251      1.87189      .   S
    C252   O253      0.89956      .   S
    Zr31   O253      1.83034      .   S
    C252   O254      1.02752  1_556   S
    Zr5    O254      2.07303      .   S
    C252   O255      0.92795  1_556   S
    Zr1    O255      1.86039      .   S
    C252   O256      0.90346      .   S
    N85    O256      1.60812      .   S
    C257   O258      1.10379      .   S
    N71    O258      2.17861      .   S
    C257   O259      0.93723      .   S
    Zr7    O259      1.87264      .   S
    C257   O260      0.86312      .   S
    Zr3    O260      1.73222      .   S
    C261   O262      0.87610      .   S
    Zr3    O262      1.75578  1_554   S
    C261   O263      0.92669      .   S
    Zr7    O263      1.85233  1_554   S
    C261   O264      1.10353      .   S
    N81    O264      2.17771      .   S
    C265   O266      0.92669      .   S
    Zr5    O266      1.85232  1_554   S
    C265   O267      1.10353      .   S
    N56    O267      2.17772      .   S
    C265   O268      0.87610      .   S
    Zr1    O268      1.75578  1_554   S
    C269   O270      1.10379      .   S
    N77    O270      2.17861      .   S
    C269   O271      0.93723      .   S
    Zr5    O271      1.87264      .   S
    C269   O272      0.86313      .   S
    Zr1    O272      1.73222      .   S
    C273   O274      0.89978      .   S
    Zr7    O274      1.83060      .   S
    C273   O275      0.92754  1_554   S
    Zr27   O275      1.86005      .   S
    C273   O276      1.02793  1_554   S
    Zr31   O276      2.07421      .   S
    C273   O277      0.90426      .   S
    N64    O277      1.60992      .   S
    C278   O279      1.10355      .   S
    N36    O279      2.17792      .   S
    C278   O280      0.92610      .   S
    Zr29   O280      1.85114  1_556   S
    C278   O281      0.87605      .   S
    Zr25   O281      1.75583  1_556   S
    C282   O283      0.86355      .   S
    Zr25   O283      1.73318      .   S
    C282   O284      1.10372      .   S
    N52    O284      2.17863  1_545   S
    C282   O285      0.93692      .   S
    Zr29   O285      1.87195      .   S
    C286   O287      0.92789  1_556   S
    Zr3    O287      1.86037      .   S
    C286   O288      1.02747  1_556   S
    Zr7    O288      2.07300      .   S
    C286   O289      0.90347      .   S
    N74    O289      1.60834      .   S
    C286   O290      0.89959      .   S
    Zr29   O290      1.83032  1_455   S
    C291   O292      0.89978      .   S
    Zr5    O292      1.83060      .   S
    C291   O293      0.92754  1_554   S
    Zr25   O293      1.86005      .   S
    C291   O294      1.02794  1_554   S
    Zr29   O294      2.07422      .   S
    C291   O295      0.90426      .   S
    N48    O295      1.60992      .   S
    C296   O297      0.87605      .   S
    Zr27   O297      1.75583  1_556   S
    C296   O298      0.92610      .   S
    Zr31   O298      1.85113  1_556   S
    C296   O299      1.10355      .   S
    N32    O299      2.17792      .   S
    C300   O301      1.10372      .   S
    N73    O301      2.17863  1_545   S
    C300   O302      0.93691      .   S
    Zr31   O302      1.87195      .   S
    C300   O303      0.86355      .   S
    Zr27   O303      1.73318      .   S
