# CIF file generated by openbabel 2.4.90, see http://openbabel.sf.net
data_I
_chemical_name_common ''
_cell_length_a 17.2
_cell_length_b 18.534
_cell_length_c 18.532
_cell_angle_alpha 77.738
_cell_angle_beta 62.555
_cell_angle_gamma 62.555
_space_group_name_H-M_alt 'P 1'
_space_group_name_Hall 'P 1'
loop_
    _symmetry_equiv_pos_as_xyz
    x,y,z
loop_
    _atom_site_label
    _atom_site_type_symbol
    _atom_site_fract_x
    _atom_site_fract_y
    _atom_site_fract_z
    _atom_site_occupancy
    K0      K    0.43802   0.12448   0.62451   1.000
    K1      K    0.43801   0.62448   0.12450   1.000
    K2      K    0.43802   0.62447   0.62450   1.000
    K3      K    0.93800   0.12448   0.12450   1.000
    K4      K    0.93800   0.12448   0.62451   1.000
    K5      K    0.93800   0.62448   0.12450   1.000
    K6      K    0.93801   0.62447   0.62450   1.000
    K7      K    0.06199   0.37552   0.37554   1.000
    K8      K    0.06200   0.37552   0.87555   1.000
    K9      K    0.06200   0.87552   0.37554   1.000
    K10     K    0.06201   0.87551   0.87555   1.000
    K11     K    0.56198   0.37552   0.37554   1.000
    K12     K    0.56199   0.37552   0.87555   1.000
    K13     K    0.56199   0.87552   0.37554   1.000
    K14     K    0.56200   0.87551   0.87555   1.000
    Y15     Y    0.31275   0.37474   0.37477   1.000
    Y16     Y    0.31276   0.37474   0.87477   1.000
    Y17     Y    0.31275   0.87474   0.37477   1.000
    Y18     Y    0.31276   0.87473   0.87470   1.000
    Y19     Y    0.81274   0.37474   0.37477   1.000
    Y20     Y    0.81275   0.37474   0.87470   1.000
    Y21     Y    0.81274   0.87474   0.37477   1.000
    Y22     Y    0.81275   0.87473   0.87477   1.000
    Y23     Y    0.18725   0.12526   0.12527   1.000
    Y24     Y    0.18726   0.12525   0.62528   1.000
    Y25     Y    0.18725   0.62526   0.12528   1.000
    Y26     Y    0.18727   0.62525   0.62528   1.000
    Y27     Y    0.68724   0.12526   0.12527   1.000
    Y28     Y    0.68725   0.12526   0.62528   1.000
    Y29     Y    0.68724   0.62526   0.12528   1.000
    Y30     Y    0.68726   0.62525   0.62528   1.000
    C31     C    0.29219   0.23915   0.01120   1.000
    K32     K    0.43801   0.12448   0.12450   1.000
    C33     C    0.29220   0.23914   0.51124   1.000
    C34     C    0.29220   0.73914   0.01120   1.000
    C35     C    0.29220   0.73914   0.51124   1.000
    C36     C    0.79218   0.23914   0.01124   1.000
    C37     C    0.79219   0.23914   0.51124   1.000
    C38     C    0.79219   0.73914   0.01123   1.000
    C39     C    0.79219   0.73914   0.51124   1.000
    C40     C    0.29218   0.01123   0.23917   1.000
    C41     C    0.29219   0.01122   0.73918   1.000
    C42     C    0.29219   0.51122   0.23916   1.000
    C43     C    0.29221   0.51121   0.73917   1.000
    C44     C    0.79217   0.01123   0.23917   1.000
    C45     C    0.79219   0.01122   0.73918   1.000
    C46     C    0.79218   0.51122   0.23916   1.000
    C47     C    0.79220   0.51121   0.73917   1.000
    C48     C    0.30326   0.48910   0.48914   1.000
    C49     C    0.30327   0.48910   0.98915   1.000
    C50     C    0.30327   0.98910   0.48915   1.000
    C51     C    0.30328   0.98909   0.98916   1.000
    C52     C    0.80325   0.48911   0.48910   1.000
    C53     C    0.80326   0.48910   0.98915   1.000
    C54     C    0.80326   0.98910   0.48915   1.000
    C55     C    0.80327   0.98909   0.98916   1.000
    C56     C    0.03117   0.26121   0.26123   1.000
    C57     C    0.03118   0.26120   0.76124   1.000
    C58     C    0.03117   0.76120   0.26123   1.000
    C59     C    0.03119   0.76119   0.76123   1.000
    C60     C    0.53116   0.26120   0.26123   1.000
    C61     C    0.53117   0.26120   0.76124   1.000
    C62     C    0.53116   0.76120   0.26123   1.000
    C63     C    0.53117   0.76119   0.76124   1.000
    C64     C    0.20781   0.26086   0.48881   1.000
    C65     C    0.20782   0.26086   0.98881   1.000
    C66     C    0.20782   0.76086   0.48880   1.000
    C67     C    0.20782   0.76085   0.98881   1.000
    C68     C    0.70780   0.26086   0.48881   1.000
    C69     C    0.70781   0.26085   0.98881   1.000
    C70     C    0.70781   0.76086   0.48880   1.000
    C71     C    0.70782   0.76085   0.98881   1.000
    C72     C    0.20781   0.48878   0.26088   1.000
    C73     C    0.20782   0.48878   0.76088   1.000
    C74     C    0.20782   0.98878   0.26087   1.000
    C75     C    0.20783   0.98877   0.76088   1.000
    C76     C    0.70780   0.48879   0.26088   1.000
    C77     C    0.70781   0.48878   0.76089   1.000
    C78     C    0.70781   0.98878   0.26087   1.000
    C79     C    0.70782   0.98877   0.76088   1.000
    C80     C    0.19674   0.01091   0.01089   1.000
    C81     C    0.19674   0.01090   0.51090   1.000
    C82     C    0.19674   0.51090   0.01090   1.000
    C83     C    0.19675   0.51089   0.51090   1.000
    C84     C    0.69673   0.01090   0.01089   1.000
    C85     C    0.69673   0.01090   0.51090   1.000
    C86     C    0.69673   0.51090   0.01090   1.000
    C87     C    0.69674   0.51089   0.51090   1.000
    C88     C    0.46883   0.23880   0.23881   1.000
    C89     C    0.46885   0.23880   0.73882   1.000
    C90     C    0.46883   0.73880   0.23881   1.000
    C91     C    0.46885   0.73879   0.73882   1.000
    C92     C    0.96882   0.23880   0.23881   1.000
    C93     C    0.96883   0.23880   0.73882   1.000
    C94     C    0.96882   0.73880   0.23881   1.000
    C95     C    0.96884   0.73879   0.73882   1.000
    O96     O    0.34586   0.27631   0.47387   1.000
    O97     O    0.34587   0.27630   0.97388   1.000
    O98     O    0.34586   0.77631   0.47387   1.000
    O99     O    0.34587   0.77629   0.97388   1.000
    O100    O    0.68067   0.97340   0.97343   1.000
    O101    O    0.13385   0.06500   0.06498   1.000
    O102    O    0.13385   0.06499   0.56499   1.000
    O103    O    0.13385   0.56499   0.06499   1.000
    O104    O    0.84585   0.27631   0.47387   1.000
    O105    O    0.84586   0.27630   0.97388   1.000
    O106    O    0.84585   0.77631   0.47387   1.000
    O107    O    0.84586   0.77629   0.97387   1.000
    O108    O    0.30065   0.18536   0.06570   1.000
    O109    O    0.30066   0.18535   0.56571   1.000
    O110    O    0.30065   0.68536   0.06570   1.000
    O111    O    0.30066   0.68535   0.56570   1.000
    O112    O    0.80064   0.18536   0.06570   1.000
    O113    O    0.80065   0.18535   0.56571   1.000
    O114    O    0.80064   0.68536   0.06570   1.000
    O115    O    0.80065   0.68535   0.56570   1.000
    O116    O    0.34586   0.47384   0.27633   1.000
    O117    O    0.34587   0.47384   0.77634   1.000
    O118    O    0.34585   0.97385   0.27634   1.000
    O119    O    0.34587   0.97384   0.77634   1.000
    O120    O    0.84584   0.47385   0.27633   1.000
    O121    O    0.84586   0.47384   0.77634   1.000
    O122    O    0.84585   0.97385   0.27634   1.000
    O123    O    0.84586   0.97384   0.77634   1.000
    O124    O    0.30063   0.06570   0.18539   1.000
    O125    O    0.30064   0.06569   0.68540   1.000
    O126    O    0.30064   0.56569   0.18539   1.000
    O127    O    0.30065   0.56568   0.68539   1.000
    O128    O    0.80062   0.06569   0.18539   1.000
    O129    O    0.80063   0.06569   0.68540   1.000
    O130    O    0.80062   0.56569   0.18539   1.000
    O131    O    0.80064   0.56568   0.68539   1.000
    O132    O    0.31933   0.02660   0.02662   1.000
    O133    O    0.31934   0.02659   0.52662   1.000
    O134    O    0.31933   0.52660   0.02662   1.000
    O135    O    0.31935   0.52659   0.52662   1.000
    O136    O    0.81932   0.02660   0.02662   1.000
    O137    O    0.81933   0.02659   0.52662   1.000
    O138    O    0.81932   0.52660   0.02662   1.000
    O139    O    0.81934   0.52659   0.52662   1.000
    O140    O    0.36616   0.43501   0.43505   1.000
    O141    O    0.36616   0.43501   0.93506   1.000
    O142    O    0.36616   0.93501   0.43506   1.000
    O143    O    0.36617   0.93500   0.93506   1.000
    O144    O    0.86614   0.43502   0.43505   1.000
    O145    O    0.86615   0.43501   0.93506   1.000
    O146    O    0.86614   0.93501   0.43506   1.000
    O147    O    0.86616   0.93500   0.93506   1.000
    O148    O    0.12180   0.22416   0.22417   1.000
    O149    O    0.12181   0.22415   0.72418   1.000
    O150    O    0.12180   0.72415   0.22418   1.000
    O151    O    0.12181   0.72414   0.72418   1.000
    O152    O    0.62179   0.22415   0.22417   1.000
    O153    O    0.62180   0.22415   0.72418   1.000
    O154    O    0.62178   0.72415   0.22418   1.000
    O155    O    0.62180   0.72414   0.72418   1.000
    O156    O    0.48576   0.31537   0.31539   1.000
    O157    O    0.48577   0.31537   0.81540   1.000
    O158    O    0.48575   0.81538   0.31539   1.000
    O159    O    0.48577   0.81536   0.81540   1.000
    O160    O    0.98574   0.31538   0.31539   1.000
    O161    O    0.98576   0.31537   0.81540   1.000
    O162    O    0.98574   0.81538   0.31500   1.000
    O163    O    0.98576   0.81536   0.81540   1.000
    O164    O    0.15415   0.22370   0.02617   1.000
    O165    O    0.15415   0.22369   0.52618   1.000
    O166    O    0.15415   0.72369   0.02617   1.000
    O167    O    0.15416   0.72368   0.52617   1.000
    O168    O    0.65414   0.22370   0.02617   1.000
    O169    O    0.65415   0.22369   0.52618   1.000
    O170    O    0.65414   0.72369   0.02617   1.000
    O171    O    0.65415   0.72368   0.52617   1.000
    O172    O    0.19936   0.31465   0.43434   1.000
    O173    O    0.19936   0.31464   0.93435   1.000
    O174    O    0.19936   0.81465   0.43434   1.000
    O175    O    0.19937   0.81464   0.93435   1.000
    O176    O    0.69934   0.31465   0.43430   1.000
    O177    O    0.69935   0.31464   0.93435   1.000
    O178    O    0.69934   0.81465   0.43435   1.000
    O179    O    0.69936   0.81464   0.93435   1.000
    O180    O    0.15415   0.02616   0.22370   1.000
    O181    O    0.15416   0.02615   0.72371   1.000
    O182    O    0.15415   0.52616   0.22371   1.000
    O183    O    0.15416   0.52615   0.72371   1.000
    O184    O    0.65414   0.02615   0.22370   1.000
    O185    O    0.65415   0.02615   0.72371   1.000
    O186    O    0.65414   0.52616   0.22371   1.000
    O187    O    0.65415   0.52615   0.72370   1.000
    O188    O    0.19936   0.43431   0.31466   1.000
    O189    O    0.19937   0.43431   0.81467   1.000
    O190    O    0.19937   0.93431   0.31466   1.000
    O191    O    0.19938   0.93430   0.81466   1.000
    O192    O    0.69935   0.43432   0.31466   1.000
    O193    O    0.69936   0.43431   0.81467   1.000
    O194    O    0.69936   0.93431   0.31466   1.000
    O195    O    0.69937   0.93430   0.81466   1.000
    O196    O    0.18067   0.47340   0.47340   1.000
    O197    O    0.18068   0.47340   0.97343   1.000
    O198    O    0.18067   0.97341   0.47343   1.000
    O199    O    0.18068   0.97340   0.97343   1.000
    O200    O    0.68066   0.47341   0.47343   1.000
    O201    O    0.68067   0.47340   0.97343   1.000
    O202    O    0.68066   0.97341   0.47343   1.000
    O203    O    0.13386   0.56498   0.56499   1.000
    O204    O    0.63384   0.06499   0.06498   1.000
    O205    O    0.63384   0.06499   0.56499   1.000
    O206    O    0.63384   0.56499   0.06499   1.000
    O207    O    0.63385   0.56498   0.56500   1.000
    O208    O    0.37821   0.27585   0.27586   1.000
    O209    O    0.37822   0.27585   0.77587   1.000
    O210    O    0.37820   0.77585   0.27580   1.000
    O211    O    0.37822   0.77584   0.77587   1.000
    O212    O    0.87819   0.27586   0.27586   1.000
    O213    O    0.87821   0.27585   0.77587   1.000
    O214    O    0.87819   0.77585   0.27587   1.000
    O215    O    0.87821   0.77584   0.77587   1.000
    O216    O    0.01425   0.18463   0.18465   1.000
    O217    O    0.01426   0.18462   0.68466   1.000
    O218    O    0.01425   0.68463   0.18465   1.000
    O219    O    0.01426   0.68462   0.68465   1.000
    O220    O    0.51424   0.18463   0.18460   1.000
    O221    O    0.51425   0.18463   0.68460   1.000
    O222    O    0.51424   0.68463   0.18465   1.000
    O223    O    0.51425   0.68462   0.68466   1.000
loop_
    _geom_bond_atom_site_label_1
    _geom_bond_atom_site_label_2
    _geom_bond_distance
    _geom_bond_site_symmetry_2
    _ccdc_geom_bond_type
    C80    O101      1.26794      .   S
    C80    O199      1.26494  1_544   S
    C80    C51       1.54583  1_544   S
    C84    O204      1.26794      .   S
    C84    O100      1.26491  1_544   S
    C84    C55       1.54583  1_544   S
    C82    O103      1.26795      .   S
    C82    O197      1.26507  1_554   S
    C82    C49       1.54568  1_554   S
    C86    O206      1.26796      .   S
    C86    O201      1.26508  1_554   S
    C86    C53       1.54566  1_554   S
    C34    O110      1.26847      .   S
    C34    O99       1.26492  1_554   S
    C34    C67       1.54465  1_554   S
    C31    O108      1.26850      .   S
    C31    O97       1.26492  1_554   S
    C31    C65       1.54465  1_554   S
    C38    O114      1.26808      .   S
    C38    O107      1.26499  1_554   S
    C38    C71       1.54501  1_554   S
    C36    O112      1.26801      .   S
    C36    O105      1.26499  1_554   S
    C36    C69       1.54513  1_554   S
    O164   Y23       2.36827      .   S
    O164   C65       1.26499  1_554   S
    O166   Y25       2.36835      .   S
    O166   C67       1.26500  1_554   S
    O168   Y27       2.36827      .   S
    O168   C69       1.26499  1_554   S
    O170   Y29       2.36833      .   S
    O170   C71       1.26499  1_554   S
    O132   Y23       2.36843      .   S
    O132   C51       1.26491  1_544   S
    O134   Y25       2.36849      .   S
    O134   C49       1.26505  1_554   S
    O136   Y27       2.36843      .   S
    O136   C55       1.26492  1_544   S
    O138   Y29       2.36850      .   S
    O138   C53       1.26507  1_554   S
    O112   Y27       2.39971      .   S
    O108   Y23       2.39972      .   S
    Y23    O216      2.39877      .   S
    Y23    O180      2.36837      .   S
    Y23    O148      2.36831      .   S
    Y27    O220      2.39878      .   S
    Y27    O184      2.36838      .   S
    Y27    O152      2.36829      .   S
    Y25    O218      2.39878      .   S
    Y25    O126      2.39969      .   S
    Y25    O182      2.36835      .   S
    Y25    O150      2.36828      .   S
    Y29    O222      2.39877      .   S
    Y29    O130      2.39968      .   S
    Y29    O186      2.36835      .   S
    Y29    O154      2.36828      .   S
    O220   C88       1.26872      .   S
    O216   C92       1.26805  1_455   S
    O222   C90       1.26809      .   S
    O218   C94       1.26805  1_455   S
    O130   C46       1.26796      .   S
    O128   C44       1.26803      .   S
    O126   C42       1.26797      .   S
    O124   C40       1.26802      .   S
    O184   C78       1.26513  1_545   S
    O180   C74       1.26513  1_545   S
    O182   C72       1.26500      .   S
    O186   C76       1.26500      .   S
    O152   C60       1.26487      .   S
    O148   C56       1.26487      .   S
    O154   C62       1.26485      .   S
    O150   C58       1.26485      .   S
    C94    C58       1.54575  1_655   S
    C94    O214      1.26487      .   S
    C92    C56       1.54575  1_655   S
    C92    O212      1.26487      .   S
    C90    C62       1.54538      .   S
    C90    O210      1.26475      .   S
    C88    C60       1.54539      .   S
    C88    O208      1.26485      .   S
    C42    C72       1.54538      .   S
    C42    O116      1.26504      .   S
    C46    C76       1.54538      .   S
    C46    O120      1.26503      .   S
    C44    C78       1.54529  1_545   S
    C44    O122      1.26517  1_545   S
    C40    C74       1.54528  1_545   S
    C40    O118      1.26519  1_545   S
    C78    O194      1.26808      .   S
    C74    O190      1.26809      .   S
    C76    O192      1.26804      .   S
    C72    O188      1.26805      .   S
    C56    O160      1.26804  1_455   S
    C58    O162      1.26320  1_455   S
    C60    O156      1.26808      .   S
    C62    O158      1.26811      .   S
    O210   Y17       2.36921      .   S
    O208   Y15       2.36839      .   S
    O212   Y19       2.36841      .   S
    O214   Y21       2.36829      .   S
    O116   Y15       2.36838      .   S
    O120   Y19       2.36837      .   S
    O122   Y21       2.36831      .   S
    O118   Y17       2.36831      .   S
    O190   Y17       2.39967      .   S
    O194   Y21       2.39967      .   S
    O162   Y21       2.39868      .   S
    O160   Y19       2.39878      .   S
    O156   Y15       2.39878      .   S
    O158   Y17       2.39878      .   S
    Y19    O176      2.39973      .   S
    Y19    O200      2.36849      .   S
    Y19    O104      2.36829      .   S
    Y17    O198      2.36851      .   S
    Y17    O98       2.36832      .   S
    Y21    O202      2.36852      .   S
    Y21    O106      2.36832      .   S
    Y15    O172      2.39971      .   S
    Y15    O196      2.36823      .   S
    Y15    O96       2.36826      .   S
    K9     O174      2.72689      .   S
    O176   C68       1.26866      .   S
    O172   C64       1.26814      .   S
    O174   C66       1.26807      .   S
    O178   C70       1.26794      .   S
    O144   C52       1.26752      .   S
    O140   C48       1.26793      .   S
    O146   C54       1.26791      .   S
    O142   C50       1.26791      .   S
    O196   C83       1.26549      .   S
    O198   C81       1.26503  1_565   S
    O202   C85       1.26505  1_565   S
    O200   C87       1.26505      .   S
    O96    C33       1.26502      .   S
    O106   C39       1.26502      .   S
    O104   C37       1.26502      .   S
    O98    C35       1.26502      .   S
    C66    C35       1.54541      .   S
    C66    O167      1.26501      .   S
    C70    C39       1.54541      .   S
    C70    O171      1.26502      .   S
    C68    C37       1.54531      .   S
    C68    O169      1.26501      .   S
    C64    C33       1.54529      .   S
    C64    O165      1.26502      .   S
    C52    C87       1.54527      .   S
    C52    O139      1.26576      .   S
    C48    C83       1.54544      .   S
    C48    O135      1.26521      .   S
    C54    C85       1.54557  1_565   S
    C54    O137      1.26503  1_565   S
    C50    C81       1.54558  1_565   S
    C50    O133      1.26502  1_565   S
    C85    O205      1.26793      .   S
    C83    O203      1.26796      .   S
    C81    O102      1.26793      .   S
    C87    O207      1.26805      .   S
    C33    O109      1.26812      .   S
    C35    O111      1.26803      .   S
    C37    O113      1.26813      .   S
    C39    O115      1.26802      .   S
    O167   Y26       2.36838      .   S
    O171   Y30       2.36837      .   S
    O169   Y28       2.36825      .   S
    O165   Y24       2.36826      .   S
    O133   Y24       2.36850      .   S
    O135   Y26       2.36850      .   S
    O137   Y28       2.36850      .   S
    O139   Y30       2.36849      .   S
    O113   Y28       2.39971      .   S
    O109   Y24       2.39972      .   S
    Y30    O223      2.39877      .   S
    Y30    O131      2.39970      .   S
    Y30    O187      2.36823      .   S
    Y30    O155      2.36829      .   S
    Y28    O221      2.39877      .   S
    Y28    O185      2.36837      .   S
    Y28    O153      2.36831      .   S
    Y26    O219      2.39876      .   S
    Y26    O127      2.39971      .   S
    Y26    O183      2.36831      .   S
    Y26    O151      2.36829      .   S
    Y24    O217      2.39875      .   S
    Y24    O181      2.36836      .   S
    Y24    O149      2.36833      .   S
    O221   C89       1.26886      .   S
    O219   C95       1.26818  1_455   S
    O223   C91       1.26808      .   S
    O217   C93       1.26806  1_455   S
    O127   C43       1.26805      .   S
    O131   C47       1.26805      .   S
    O125   C41       1.26803      .   S
    O129   C45       1.26805      .   S
    O187   C77       1.26528      .   S
    O185   C79       1.26515  1_545   S
    O183   C73       1.26498      .   S
    O181   C75       1.26516  1_545   S
    O153   C61       1.26487      .   S
    O155   C63       1.26487      .   S
    O151   C59       1.26485      .   S
    O149   C57       1.26487      .   S
    C95    C59       1.54563  1_655   S
    C95    O215      1.26485      .   S
    C93    C57       1.54575  1_655   S
    C93    O213      1.26485      .   S
    C91    C63       1.54541      .   S
    C91    O211      1.26487      .   S
    C89    C61       1.54540      .   S
    C89    O209      1.26485      .   S
    C43    C73       1.54542      .   S
    C43    O117      1.26503      .   S
    C47    C77       1.54539      .   S
    C47    O121      1.26503      .   S
    C41    C75       1.54529  1_545   S
    C41    O119      1.26503  1_545   S
    C45    C79       1.54529  1_545   S
    C45    O123      1.26503  1_545   S
    C79    O195      1.26802      .   S
    C75    O191      1.26801      .   S
    C73    O189      1.26813      .   S
    C77    O193      1.26803      .   S
    C59    O163      1.26818  1_455   S
    C57    O161      1.26806  1_455   S
    C61    O157      1.26809      .   S
    C63    O159      1.26808      .   S
    O211   Y18       2.36735      .   S
    O213   Y20       2.36732      .   S
    O209   Y16       2.36825      .   S
    O215   Y22       2.36827      .   S
    O119   Y18       2.36770      .   S
    O123   Y22       2.36834      .   S
    O117   Y16       2.36828      .   S
    O121   Y20       2.36766      .   S
    O191   Y18       2.39871      .   S
    O195   Y22       2.39967      .   S
    O189   Y16       2.39959      .   S
    O193   Y20       2.39862      .   S
    O161   Y20       2.39883      .   S
    O157   Y16       2.39880      .   S
    O159   Y18       2.39880      .   S
    O163   Y22       2.39878      .   S
    Y20    O201      2.36914      .   S
    Y20    O105      2.36936      .   S
    Y18    O199      2.36918      .   S
    Y18    O99       2.36937      .   S
    Y16    O197      2.36851      .   S
    Y16    O97       2.36840      .   S
    Y22    O100      2.36854      .   S
    Y22    O107      2.36831      .   S
    O173   C65       1.26802      .   S
    O175   C67       1.26800      .   S
    O177   C69       1.26802      .   S
    O179   C71       1.26801      .   S
    O147   C55       1.26803      .   S
    O145   C53       1.26795      .   S
    O141   C49       1.26795      .   S
    O143   C51       1.26803      .   S
    O108   K32       2.72692      .   S
    O109   K0        2.72690      .   S
    O110   K1        2.72695      .   S
    O110   Y25       2.39972      .   S
    O111   K2        2.72691      .   S
    O111   Y26       2.39972      .   S
    O112   K3        2.72690      .   S
    O113   K4        2.72689      .   S
    O114   K5        2.72691      .   S
    O114   Y29       2.39973      .   S
    O115   K6        2.72694      .   S
    O115   Y30       2.39972      .   S
    O124   K32       2.72703      .   S
    O124   Y23       2.39976      .   S
    O125   K0        2.72704      .   S
    O125   Y24       2.39978      .   S
    O126   K1        2.72701      .   S
    O127   K2        2.72699      .   S
    O128   K3        2.72702      .   S
    O128   Y27       2.39975      .   S
    O129   K4        2.72702      .   S
    O129   Y28       2.39978      .   S
    O130   K5        2.72700      .   S
    O131   K6        2.72699      .   S
    O140   K11       2.72876      .   S
    O140   Y15       2.40032      .   S
    O141   K12       2.72876      .   S
    O141   Y16       2.40040      .   S
    O142   K13       2.72878      .   S
    O142   Y17       2.40043      .   S
    O143   K14       2.72879      .   S
    O143   Y18       2.40136      .   S
    O144   K7        2.72908  1_655   S
    O144   Y19       2.40029      .   S
    O145   K8        2.72907  1_655   S
    O145   Y20       2.40136      .   S
    O146   K9        2.72908  1_655   S
    O146   Y21       2.40044      .   S
    O147   K10       2.72909  1_655   S
    O147   Y22       2.40040      .   S
    O156   K11       2.72519      .   S
    O157   K12       2.72516      .   S
    O158   K13       2.72520      .   S
    O159   K14       2.72522      .   S
    O160   K7        2.72548  1_655   S
    O161   K8        2.72548  1_655   S
    O162   K9        2.73070  1_655   S
    O163   K10       2.72550  1_655   S
    O172   K7        2.72693      .   S
    O173   K8        2.72692      .   S
    O173   Y16       2.39972      .   S
    O174   Y17       2.39971      .   S
    O175   K10       2.72687      .   S
    O175   Y18       2.39970      .   S
    O176   K11       2.72637      .   S
    O177   K12       2.72695      .   S
    O177   Y20       2.39969      .   S
    O178   K13       2.72701      .   S
    O178   Y21       2.39970      .   S
    O179   K14       2.72693      .   S
    O179   Y22       2.39970      .   S
    O188   K7        2.72700      .   S
    O188   Y15       2.39974      .   S
    O189   K8        2.72699      .   S
    O190   K9        2.72705      .   S
    O191   K10       2.72702      .   S
    O192   K11       2.72701      .   S
    O192   Y19       2.39974      .   S
    O193   K12       2.72702      .   S
    O194   K13       2.72704      .   S
    O195   K14       2.72705      .   S
    O101   K3        2.72904  1_455   S
    O101   Y23       2.40038      .   S
    O102   K4        2.72904  1_455   S
    O102   Y24       2.40043      .   S
    O103   K5        2.72903  1_455   S
    O103   Y25       2.40040      .   S
    O203   K6        2.72904  1_455   S
    O203   Y26       2.40043      .   S
    O204   K32       2.72875      .   S
    O204   Y27       2.40038      .   S
    O205   K0        2.72873      .   S
    O205   Y28       2.40043      .   S
    O206   K1        2.72874      .   S
    O206   Y29       2.40038      .   S
    O207   K2        2.72873      .   S
    O207   Y30       2.40030      .   S
    O216   K3        2.72558  1_455   S
    O217   K4        2.72557  1_455   S
    O218   K5        2.72553  1_455   S
    O219   K6        2.72555  1_455   S
    O220   K32       2.72460      .   S
    O221   K0        2.72449      .   S
    O222   K1        2.72526      .   S
    O223   K2        2.72536      .   S
