# CIF file generated by openbabel 2.4.90, see http://openbabel.sf.net
data_I
_chemical_name_common ''
_cell_length_a 17.2
_cell_length_b 18.534
_cell_length_c 18.532
_cell_angle_alpha 77.738
_cell_angle_beta 62.555
_cell_angle_gamma 62.555
_space_group_name_H-M_alt 'P 1'
_space_group_name_Hall 'P 1'
loop_
    _symmetry_equiv_pos_as_xyz
    x,y,z
loop_
    _atom_site_label
    _atom_site_type_symbol
    _atom_site_fract_x
    _atom_site_fract_y
    _atom_site_fract_z
    _atom_site_occupancy
    N0      N    0.74999   0.50000   0.25002   1.000
    N1      N    0.74999   0.00000   0.25002   1.000
    N2      N    0.25000   0.00000   0.25002   1.000
    N3      N    0.25001   0.75000   0.50002   1.000
    N4      N    0.75000   0.25000   0.00002   1.000
    N5      N    0.75000   0.25000   0.50002   1.000
    N6      N    0.75000   0.75000   0.00002   1.000
    N7      N    0.75000   0.99999   0.75003   1.000
    N8      N    0.75000   0.49999   0.75003   1.000
    N9      N    0.25001   0.50000   0.50002   1.000
    N10     N    0.25000   0.50000   0.00002   1.000
    N11     N    0.25000   0.00000   0.50002   1.000
    N12     N    0.25001   0.00000   0.00002   1.000
    N13     N    0.75000   0.50000   0.50002   1.000
    N14     N    0.75000   0.50000   0.00002   1.000
    N15     N    0.99999   0.75000   0.24996   1.000
    N16     N    0.25000   0.50000   0.25002   1.000
    N17     N    0.50000   0.25000   0.25001   1.000
    N18     N    0.50001   0.25000   0.75002   1.000
    N19     N    0.25001   0.25000   0.00002   1.000
    N20     N    0.25001   0.25000   0.50002   1.000
    N21     N    0.25001   0.75000   0.00002   1.000
    N22     N    0.74999   0.00000   0.50002   1.000
    N23     N    0.25001   0.99999   0.75003   1.000
    N24     N    0.25001   0.49999   0.75003   1.000
    N25     N    0.50001   0.74999   0.75003   1.000
    N26     N    0.00001   0.74999   0.75002   1.000
    N27     N    0.00001   0.25000   0.75003   1.000
    N28     N    0.75000   0.75000   0.50002   1.000
    N29     N    0.75000   1.00000   0.00002   1.000
    N30     N    0.99999   0.25001   0.25002   1.000
    N31     N    0.49999   0.75000   0.25001   1.000
    Zr32    Zr   0.93800   0.12448   0.62451   1.000
    O33     O    0.96304   0.16338   0.66341   1.000
    O34     O    0.87383   0.16347   0.58604   1.000
    O35     O    0.04049   0.08592   0.58595   1.000
    O36     O    0.87383   0.08601   0.66350   1.000
    Zr37    Zr   0.93801   0.62447   0.62450   1.000
    O38     O    0.96304   0.66337   0.66340   1.000
    O39     O    0.87384   0.58600   0.66349   1.000
    O40     O    0.04049   0.58592   0.58594   1.000
    O41     O    0.87384   0.66346   0.58603   1.000
    Zr42    Zr   0.06200   0.37552   0.87555   1.000
    O43     O    0.12617   0.33653   0.91402   1.000
    O44     O    0.03697   0.33662   0.83665   1.000
    O45     O    0.95952   0.41408   0.91411   1.000
    O46     O    0.12618   0.41399   0.83656   1.000
    Zr47    Zr   0.06199   0.37552   0.37554   1.000
    O48     O    0.95951   0.41408   0.41410   1.000
    O49     O    0.12617   0.41399   0.33655   1.000
    O50     O    0.12617   0.33653   0.41401   1.000
    O51     O    0.03696   0.33663   0.33664   1.000
    Zr52    Zr   0.81274   0.87474   0.37477   1.000
    Zr53    Zr   0.43801   0.12448   0.12450   1.000
    O54     O    0.37384   0.16347   0.08603   1.000
    O55     O    0.37383   0.08601   0.16349   1.000
    O56     O    0.46303   0.16338   0.16339   1.000
    O57     O    0.54048   0.08592   0.08594   1.000
    Zr58    Zr   0.31275   0.87474   0.37477   1.000
    Zr59    Zr   0.81274   0.37474   0.37477   1.000
    Zr60    Zr   0.81275   0.37474   0.87470   1.000
    Zr61    Zr   0.31276   0.37474   0.87477   1.000
    Zr62    Zr   0.81276   0.87473   0.87477   1.000
    Zr63    Zr   0.18725   0.12526   0.12527   1.000
    Zr64    Zr   0.43802   0.12448   0.62451   1.000
    O65     O    0.46304   0.16338   0.66340   1.000
    O66     O    0.37384   0.08601   0.66350   1.000
    O67     O    0.37384   0.16347   0.58604   1.000
    O68     O    0.54049   0.08592   0.58595   1.000
    Zr69    Zr   0.93800   0.62448   0.12450   1.000
    O70     O    0.96303   0.66338   0.16338   1.000
    O71     O    0.87383   0.66347   0.08603   1.000
    O72     O    0.87383   0.58601   0.16349   1.000
    O73     O    0.04048   0.58592   0.08594   1.000
    Zr74    Zr   0.93800   0.12448   0.12450   1.000
    O75     O    0.96303   0.16338   0.16340   1.000
    O76     O    0.87382   0.08601   0.16349   1.000
    O77     O    0.04048   0.08592   0.08594   1.000
    O78     O    0.87383   0.16347   0.08603   1.000
    Zr79    Zr   0.68726   0.62525   0.62528   1.000
    Zr80    Zr   0.18727   0.62525   0.62528   1.000
    Zr81    Zr   0.68724   0.12526   0.12527   1.000
    Zr82    Zr   0.31276   0.87473   0.87470   1.000
    Zr83    Zr   0.31275   0.37474   0.37477   1.000
    Zr84    Zr   0.56199   0.87552   0.37554   1.000
    O85     O    0.62616   0.91399   0.33655   1.000
    O86     O    0.62616   0.83653   0.41401   1.000
    O87     O    0.45951   0.91408   0.41410   1.000
    O88     O    0.53696   0.83662   0.33664   1.000
    Zr89    Zr   0.06201   0.87551   0.87555   1.000
    O90     O    0.95952   0.91407   0.91411   1.000
    O91     O    0.03698   0.83661   0.83665   1.000
    O92     O    0.12618   0.91398   0.83656   1.000
    O93     O    0.12618   0.83652   0.91402   1.000
    Zr94    Zr   0.06200   0.87552   0.37554   1.000
    O95     O    0.12617   0.91399   0.33655   1.000
    O96     O    0.12617   0.83653   0.41401   1.000
    O97     O    0.03696   0.83662   0.33658   1.000
    O98     O    0.95951   0.91408   0.41410   1.000
    Zr99    Zr   0.68725   0.12526   0.62528   1.000
    Zr100   Zr   0.68724   0.62526   0.12528   1.000
    Zr101   Zr   0.56200   0.87551   0.87555   1.000
    O102    O    0.45952   0.91407   0.91411   1.000
    O103    O    0.62617   0.83653   0.91402   1.000
    O104    O    0.53697   0.83662   0.83665   1.000
    O105    O    0.62617   0.91398   0.83656   1.000
    Zr106   Zr   0.18726   0.12525   0.62528   1.000
    Zr107   Zr   0.18725   0.62526   0.12528   1.000
    Zr108   Zr   0.43801   0.62448   0.12450   1.000
    O109    O    0.37384   0.66347   0.08603   1.000
    O110    O    0.37384   0.58601   0.16349   1.000
    O111    O    0.54049   0.58592   0.08594   1.000
    O112    O    0.46304   0.66338   0.16340   1.000
    Zr113   Zr   0.43802   0.62447   0.62450   1.000
    O114    O    0.46305   0.66337   0.66340   1.000
    O115    O    0.54049   0.58592   0.58594   1.000
    O116    O    0.37385   0.66346   0.58603   1.000
    O117    O    0.37385   0.58600   0.66349   1.000
    Zr118   Zr   0.56198   0.37552   0.37554   1.000
    O119    O    0.62616   0.41399   0.33655   1.000
    O120    O    0.62616   0.33653   0.41400   1.000
    O121    O    0.53696   0.33662   0.33664   1.000
    O122    O    0.45951   0.41408   0.41410   1.000
    Zr123   Zr   0.56199   0.37552   0.87555   1.000
    O124    O    0.62616   0.33653   0.91402   1.000
    O125    O    0.53697   0.33662   0.83665   1.000
    O126    O    0.62617   0.41399   0.83656   1.000
    O127    O    0.45952   0.41408   0.91411   1.000
    O128    O    0.87446   0.83367   0.33365   1.000
    O129    O    0.79203   0.91598   0.33367   1.000
    O130    O    0.79214   0.91599   0.41602   1.000
    O131    O    0.79204   0.83365   0.41600   1.000
    O132    O    0.29205   0.41597   0.33367   1.000
    O133    O    0.20796   0.58403   0.16637   1.000
    O134    O    0.37448   0.83366   0.83365   1.000
    O135    O    0.62554   0.66633   0.66636   1.000
    O136    O    0.20796   0.16636   0.08404   1.000
    O137    O    0.29205   0.33365   0.91600   1.000
    O138    O    0.62554   0.16633   0.66635   1.000
    O139    O    0.37448   0.33366   0.83369   1.000
    O140    O    0.29216   0.91598   0.91597   1.000
    O141    O    0.20786   0.08402   0.08402   1.000
    O142    O    0.12553   0.66634   0.16634   1.000
    O143    O    0.29206   0.83364   0.91596   1.000
    O144    O    0.29206   0.91596   0.83363   1.000
    O145    O    0.20796   0.66635   0.08405   1.000
    O146    O    0.29215   0.41599   0.41601   1.000
    O147    O    0.29205   0.33365   0.41600   1.000
    O148    O    0.37447   0.33367   0.33369   1.000
    O149    O    0.70796   0.08402   0.66638   1.000
    O150    O    0.79205   0.91596   0.83368   1.000
    O151    O    0.70785   0.08401   0.08402   1.000
    O152    O    0.79215   0.91598   0.91602   1.000
    O153    O    0.70795   0.66635   0.08405   1.000
    O154    O    0.70785   0.58401   0.08403   1.000
    O155    O    0.62553   0.66634   0.16635   1.000
    O156    O    0.70795   0.58403   0.16637   1.000
    O157    O    0.79205   0.83364   0.91600   1.000
    O158    O    0.20797   0.58402   0.66638   1.000
    O159    O    0.29206   0.41597   0.83368   1.000
    O160    O    0.12555   0.16633   0.66636   1.000
    O161    O    0.20797   0.08402   0.66638   1.000
    O162    O    0.20797   0.16635   0.58405   1.000
    O163    O    0.20787   0.08401   0.58403   1.000
    O164    O    0.20786   0.58401   0.08403   1.000
    O165    O    0.70786   0.58401   0.58403   1.000
    O166    O    0.79214   0.41599   0.41602   1.000
    O167    O    0.79214   0.41599   0.91597   1.000
    O168    O    0.79204   0.33364   0.91596   1.000
    O169    O    0.70795   0.16636   0.08404   1.000
    O170    O    0.87447   0.33366   0.83365   1.000
    O171    O    0.79205   0.41597   0.83363   1.000
    O172    O    0.20796   0.08403   0.16637   1.000
    O173    O    0.12553   0.16634   0.16635   1.000
    O174    O    0.29205   0.83365   0.41600   1.000
    O175    O    0.29204   0.91598   0.33367   1.000
    O176    O    0.37446   0.83367   0.33368   1.000
    O177    O    0.29215   0.91599   0.41602   1.000
    O178    O    0.20797   0.66635   0.58405   1.000
    O179    O    0.12555   0.66633   0.66636   1.000
    O180    O    0.20787   0.58400   0.58403   1.000
    O181    O    0.70795   0.08403   0.16637   1.000
    O182    O    0.62553   0.16634   0.16634   1.000
    O183    O    0.70786   0.08401   0.58403   1.000
    O184    O    0.70796   0.16635   0.58405   1.000
    O185    O    0.87447   0.83366   0.83369   1.000
    O186    O    0.70796   0.58402   0.66637   1.000
    O187    O    0.70796   0.66635   0.58405   1.000
    O188    O    0.29215   0.41599   0.91602   1.000
    O189    O    0.79203   0.33365   0.41600   1.000
    O190    O    0.87446   0.33367   0.33369   1.000
    O191    O    0.79203   0.41598   0.33367   1.000
loop_
    _geom_bond_atom_site_label_1
    _geom_bond_atom_site_label_2
    _geom_bond_distance
    _geom_bond_site_symmetry_2
    _ccdc_geom_bond_type
    Zr32   O33       1.42048      .   S
    N27    O33       2.92151  1_455   S
    Zr32   O34       1.42132      .   S
    N5     O34       2.92321      .   S
    Zr32   O35       1.42234  1_655   S
    N11    O35       2.92504      .   S
    Zr32   O36       1.42133      .   S
    N7     O36       2.92317  1_565   S
    Zr37   O38       1.42049      .   S
    N26    O38       2.92157  1_455   S
    Zr37   O39       1.42133      .   S
    N8     O39       2.92317      .   S
    Zr37   O40       1.42232  1_655   S
    N9     O40       2.92499      .   S
    Zr37   O41       1.42130      .   S
    N28    O41       2.92312      .   S
    Zr42   O43       1.42123      .   S
    N19    O43       2.92292  1_554   S
    Zr42   O44       1.42047      .   S
    N27    O44       2.92152      .   S
    Zr42   O45       1.42235  1_455   S
    N14    O45       2.92508  1_554   S
    Zr42   O46       1.42132      .   S
    N24    O46       2.92316      .   S
    Zr47   O48       1.42233  1_455   S
    N13    O48       2.92500      .   S
    Zr47   O49       1.42132      .   S
    N16    O49       2.92316      .   S
    Zr47   O50       1.42132      .   S
    N20    O50       2.92318      .   S
    Zr47   O51       1.42046      .   S
    N30    O51       2.92149  1_655   S
    Zr53   O54       1.42127      .   S
    N19    O54       2.92305      .   S
    Zr53   O55       1.42133      .   S
    N2     O55       2.92317      .   S
    Zr53   O56       1.42029      .   S
    N17    O56       2.92144      .   S
    Zr53   O57       1.42227      .   S
    N29    O57       2.92496  1_565   S
    Zr64   O65       1.42028      .   S
    N18    O65       2.92146      .   S
    Zr64   O66       1.42134      .   S
    N23    O66       2.92318  1_565   S
    Zr64   O67       1.42130      .   S
    N20    O67       2.92315      .   S
    Zr64   O68       1.42223      .   S
    N22    O68       2.92487      .   S
    Zr69   O70       1.42025      .   S
    N15    O70       2.92084      .   S
    Zr69   O71       1.42125      .   S
    N6     O71       2.92298      .   S
    Zr69   O72       1.42132      .   S
    N0     O72       2.92316      .   S
    Zr69   O73       1.42234  1_655   S
    N10    O73       2.92506      .   S
    Zr74   O75       1.42049      .   S
    N30    O75       2.92152      .   S
    Zr74   O76       1.42133      .   S
    N1     O76       2.92317      .   S
    Zr74   O77       1.42236  1_655   S
    N12    O77       2.92511      .   S
    Zr74   O78       1.42124      .   S
    N4     O78       2.92296      .   S
    Zr84   O85       1.42133      .   S
    N1     O85       2.92316  1_545   S
    Zr84   O86       1.42131      .   S
    N28    O86       2.92313      .   S
    Zr84   O87       1.42225      .   S
    N11    O87       2.92490  1_545   S
    Zr84   O88       1.42043      .   S
    N31    O88       2.92154      .   S
    Zr89   O90       1.42238  1_455   S
    N29    O90       2.92514  1_554   S
    Zr89   O91       1.42048      .   S
    N26    O91       2.92155      .   S
    Zr89   O92       1.42133      .   S
    N23    O92       2.92316      .   S
    Zr89   O93       1.42121      .   S
    N21    O93       2.92288  1_554   S
    Zr94   O95       1.42134      .   S
    N2     O95       2.92317  1_545   S
    Zr94   O96       1.42130      .   S
    N3     O96       2.92314      .   S
    Zr94   O97       1.42137      .   S
    N15    O97       2.92149  1_655   S
    Zr94   O98       1.42235  1_455   S
    N22    O98       2.92506  1_545   S
    Zr101  O102      1.42227      .   S
    N12    O102      2.92498  1_544   S
    Zr101  O103      1.42124      .   S
    N6     O103      2.92295  1_554   S
    Zr101  O104      1.42041      .   S
    N25    O104      2.92146      .   S
    Zr101  O105      1.42134      .   S
    N7     O105      2.92318      .   S
    Zr108  O109      1.42128      .   S
    N21    O109      2.92304      .   S
    Zr108  O110      1.42133      .   S
    N16    O110      2.92317      .   S
    Zr108  O111      1.42224      .   S
    N14    O111      2.92490      .   S
    Zr108  O112      1.42038      .   S
    N31    O112      2.92136      .   S
    Zr113  O114      1.42045      .   S
    N25    O114      2.92151      .   S
    Zr113  O115      1.42221      .   S
    N13    O115      2.92482      .   S
    Zr113  O116      1.42130      .   S
    N3     O116      2.92313      .   S
    Zr113  O117      1.42133      .   S
    N24    O117      2.92318      .   S
    Zr118  O119      1.42133      .   S
    N0     O119      2.92317      .   S
    Zr118  O120      1.42122      .   S
    N5     O120      2.92317      .   S
    Zr118  O121      1.42043      .   S
    N17    O121      2.92153      .   S
    Zr118  O122      1.42222      .   S
    N9     O122      2.92483      .   S
    Zr123  O124      1.42127      .   S
    N4     O124      2.92301  1_554   S
    Zr123  O125      1.42042      .   S
    N18    O125      2.92154      .   S
    Zr123  O126      1.42133      .   S
    N8     O126      2.92317      .   S
    Zr123  O127      1.42225      .   S
    N10    O127      2.92492  1_554   S
    Zr52   O128      1.02126      .   S
    N15    O128      2.07860      .   S
    Zr52   O129      1.02115      .   S
    N1     O129      2.07878  1_545   S
    Zr52   O130      1.02135      .   S
    N22    O130      2.07908  1_545   S
    Zr52   O131      1.02114      .   S
    N28    O131      2.07874      .   S
    N16    O132      2.07878      .   S
    Zr83   O132      1.02117      .   S
    N16    O133      2.07873      .   S
    Zr107  O133      1.02114      .   S
    N25    O134      2.07798      .   S
    Zr82   O134      1.02070      .   S
    N25    O135      2.07836      .   S
    Zr79   O135      1.02092      .   S
    N19    O136      2.07870      .   S
    Zr63   O136      1.02113      .   S
    N19    O137      2.07867  1_554   S
    Zr61   O137      1.02113      .   S
    N18    O138      2.07834      .   S
    Zr99   O138      1.02088      .   S
    N18    O139      2.07838      .   S
    Zr61   O139      1.02092      .   S
    N12    O140      2.07972  1_544   S
    Zr82   O140      1.02172      .   S
    N12    O141      2.07903      .   S
    Zr63   O141      1.02131      .   S
    N15    O142      2.07799  1_655   S
    Zr107  O142      1.02079      .   S
    Zr82   O143      1.02134      .   S
    N21    O143      2.07901  1_554   S
    Zr82   O144      1.02078      .   S
    N23    O144      2.07813      .   S
    N21    O145      2.07873      .   S
    Zr107  O145      1.02115      .   S
    Zr83   O146      1.02128      .   S
    N9     O146      2.07902      .   S
    Zr83   O147      1.02113      .   S
    N20    O147      2.07874      .   S
    Zr83   O148      1.02094      .   S
    N17    O148      2.07841      .   S
    N7     O149      2.07881  1_565   S
    Zr99   O149      1.02118      .   S
    N7     O150      2.07875      .   S
    Zr62   O150      1.02114      .   S
    N29    O151      2.07903  1_565   S
    Zr81   O151      1.02131      .   S
    N29    O152      2.07910  1_554   S
    Zr62   O152      1.02135      .   S
    Zr100  O153      1.02114      .   S
    N6     O153      2.07870      .   S
    Zr100  O154      1.02135      .   S
    N14    O154      2.07910      .   S
    Zr100  O155      1.02088      .   S
    N31    O155      2.07826      .   S
    Zr100  O156      1.02114      .   S
    N0     O156      2.07872      .   S
    N6     O157      2.07869  1_554   S
    Zr62   O157      1.02113      .   S
    N24    O158      2.07875      .   S
    Zr80   O158      1.02114      .   S
    N24    O159      2.07872      .   S
    Zr61   O159      1.02112      .   S
    Zr106  O160      1.02094      .   S
    N27    O160      2.07842      .   S
    Zr106  O161      1.02117      .   S
    N23    O161      2.07879  1_565   S
    Zr106  O162      1.02114      .   S
    N20    O162      2.07875      .   S
    Zr106  O163      1.02134      .   S
    N11    O163      2.07906      .   S
    Zr107  O164      1.02134      .   S
    N10    O164      2.07909      .   S
    N13    O165      2.07915      .   S
    Zr79   O165      1.02135      .   S
    N13    O166      2.07898      .   S
    Zr59   O166      1.02130      .   S
    N14    O167      2.07971  1_554   S
    Zr60   O167      1.02171      .   S
    N4     O168      2.07905  1_554   S
    Zr60   O168      1.02135      .   S
    N4     O169      2.07866      .   S
    Zr81   O169      1.02111      .   S
    Zr60   O170      1.02071      .   S
    N27    O170      2.07802  1_455   S
    Zr60   O171      1.02076      .   S
    N8     O171      2.07812      .   S
    Zr63   O172      1.02118      .   S
    N2     O172      2.07882      .   S
    Zr63   O173      1.02094      .   S
    N30    O173      2.07841  1_655   S
    Zr58   O174      1.02114      .   S
    N3     O174      2.07874      .   S
    Zr58   O175      1.02116      .   S
    N2     O175      2.07879  1_545   S
    Zr58   O176      1.02098      .   S
    N31    O176      2.07839      .   S
    Zr58   O177      1.02134      .   S
    N11    O177      2.07906  1_545   S
    N3     O178      2.07877      .   S
    Zr80   O178      1.02116      .   S
    Zr80   O179      1.02092      .   S
    N26    O179      2.07839      .   S
    Zr80   O180      1.02137      .   S
    N9     O180      2.07915      .   S
    Zr81   O181      1.02118      .   S
    N1     O181      2.07881      .   S
    Zr81   O182      1.02088      .   S
    N17    O182      2.07834      .   S
    Zr99   O183      1.02134      .   S
    N22    O183      2.07906      .   S
    Zr99   O184      1.02115      .   S
    N5     O184      2.07878      .   S
    N26    O185      2.07839  1_455   S
    Zr62   O185      1.02092      .   S
    Zr79   O186      1.02114      .   S
    N8     O186      2.07876      .   S
    Zr79   O187      1.02116      .   S
    N28    O187      2.07876      .   S
    Zr61   O188      1.02135      .   S
    N10    O188      2.07910  1_554   S
    Zr59   O189      1.02111      .   S
    N5     O189      2.07873      .   S
    Zr59   O190      1.02094      .   S
    N30    O190      2.07841      .   S
    Zr59   O191      1.02116      .   S
    N0     O191      2.07877      .   S
