# CIF file generated by openbabel 2.4.90, see http://openbabel.sf.net
data_I
_chemical_name_common ''
_cell_length_a 17.2
_cell_length_b 18.534
_cell_length_c 18.532
_cell_angle_alpha 77.738
_cell_angle_beta 62.555
_cell_angle_gamma 62.555
_space_group_name_H-M_alt 'P 1'
_space_group_name_Hall 'P 1'
loop_
    _symmetry_equiv_pos_as_xyz
    x,y,z
loop_
    _atom_site_label
    _atom_site_type_symbol
    _atom_site_fract_x
    _atom_site_fract_y
    _atom_site_fract_z
    _atom_site_occupancy
    N0      N    0.74999   0.50000   0.25002   1.000
    N1      N    0.74999   0.00000   0.25002   1.000
    N2      N    0.25000   0.00000   0.25002   1.000
    N3      N    0.25001   0.75000   0.50002   1.000
    N4      N    0.75000   0.25000   0.00002   1.000
    N5      N    0.75000   0.25000   0.50002   1.000
    N6      N    0.75000   0.75000   0.00002   1.000
    N7      N    0.75000   0.99999   0.75003   1.000
    N8      N    0.75000   0.49999   0.75003   1.000
    N9      N    0.25001   0.50000   0.50002   1.000
    N10     N    0.25000   0.50000   0.00002   1.000
    N11     N    0.25000   0.00000   0.50002   1.000
    N12     N    0.25001   0.00000   0.00002   1.000
    N13     N    0.75000   0.50000   0.50002   1.000
    N14     N    0.75000   0.50000   0.00002   1.000
    N15     N    0.99999   0.75000   0.24996   1.000
    N16     N    0.25000   0.50000   0.25002   1.000
    N17     N    0.50000   0.25000   0.25001   1.000
    N18     N    0.50001   0.25000   0.75002   1.000
    N19     N    0.25001   0.25000   0.00002   1.000
    N20     N    0.25001   0.25000   0.50002   1.000
    N21     N    0.25001   0.75000   0.00002   1.000
    N22     N    0.74999   0.00000   0.50002   1.000
    N23     N    0.25001   0.99999   0.75003   1.000
    N24     N    0.25001   0.49999   0.75003   1.000
    N25     N    0.50001   0.74999   0.75003   1.000
    N26     N    0.00001   0.74999   0.75002   1.000
    N27     N    0.00001   0.25000   0.75003   1.000
    N28     N    0.75000   0.75000   0.50002   1.000
    N29     N    0.75000   1.00000   0.00002   1.000
    N30     N    0.99999   0.25001   0.25002   1.000
    N31     N    0.49999   0.75000   0.25001   1.000
    Zr32    Zr   0.93800   0.12448   0.62451   1.000
    O33     O    0.96304   0.16338   0.66341   1.000
    O34     O    0.87383   0.16347   0.58604   1.000
    O35     O    0.04049   0.08592   0.58595   1.000
    O36     O    0.87383   0.08601   0.66350   1.000
    Zr37    Zr   0.93801   0.62447   0.62450   1.000
    O38     O    0.96304   0.66337   0.66340   1.000
    O39     O    0.87384   0.58600   0.66349   1.000
    O40     O    0.04049   0.58592   0.58594   1.000
    O41     O    0.87384   0.66346   0.58603   1.000
    Zr42    Zr   0.06200   0.37552   0.87555   1.000
    O43     O    0.12617   0.33653   0.91402   1.000
    O44     O    0.03697   0.33662   0.83665   1.000
    O45     O    0.95952   0.41408   0.91411   1.000
    O46     O    0.12618   0.41399   0.83656   1.000
    Zr47    Zr   0.06199   0.37552   0.37554   1.000
    O48     O    0.95951   0.41408   0.41410   1.000
    O49     O    0.12617   0.41399   0.33655   1.000
    O50     O    0.12617   0.33653   0.41401   1.000
    O51     O    0.03696   0.33663   0.33664   1.000
    Zr52    Zr   0.81274   0.87474   0.37477   1.000
    O53     O    0.88118   0.83614   0.33610   1.000
    O54     O    0.80373   0.91359   0.41362   1.000
    O55     O    0.80119   0.83125   0.41847   1.000
    O56     O    0.80119   0.91845   0.33128   1.000
    O57     O    0.78288   0.91350   0.33607   1.000
    O58     O    0.78288   0.83605   0.41353   1.000
    O59     O    0.78054   0.91839   0.41842   1.000
    O60     O    0.86773   0.83120   0.33120   1.000
    Zr61    Zr   0.43801   0.12448   0.12450   1.000
    O62     O    0.37384   0.16347   0.08603   1.000
    O63     O    0.37383   0.08601   0.16349   1.000
    O64     O    0.46303   0.16338   0.16339   1.000
    O65     O    0.54048   0.08592   0.08594   1.000
    Zr66    Zr   0.31275   0.87474   0.37477   1.000
    O67     O    0.30120   0.91845   0.33128   1.000
    O68     O    0.28289   0.91351   0.33607   1.000
    O69     O    0.36774   0.83120   0.33121   1.000
    O70     O    0.28289   0.83605   0.41353   1.000
    O71     O    0.30120   0.83125   0.41847   1.000
    O72     O    0.28055   0.91839   0.41842   1.000
    O73     O    0.30374   0.91359   0.41362   1.000
    O74     O    0.38119   0.83614   0.33616   1.000
    Zr75    Zr   0.81274   0.37474   0.37477   1.000
    O76     O    0.80119   0.33125   0.41847   1.000
    O77     O    0.86773   0.33120   0.33122   1.000
    O78     O    0.78288   0.41351   0.33607   1.000
    O79     O    0.80119   0.41845   0.33128   1.000
    O80     O    0.78054   0.41839   0.41841   1.000
    O81     O    0.78288   0.33605   0.41352   1.000
    O82     O    0.88118   0.33614   0.33616   1.000
    O83     O    0.80373   0.41359   0.41362   1.000
    Zr84    Zr   0.81275   0.37474   0.87470   1.000
    O85     O    0.80374   0.41359   0.91358   1.000
    O86     O    0.78289   0.33604   0.91349   1.000
    O87     O    0.88119   0.33613   0.83612   1.000
    O88     O    0.78289   0.41350   0.83603   1.000
    O89     O    0.78055   0.41839   0.91837   1.000
    O90     O    0.80120   0.33125   0.91843   1.000
    O91     O    0.80120   0.41844   0.83124   1.000
    O92     O    0.86775   0.33119   0.83118   1.000
    Zr93    Zr   0.31276   0.37474   0.87477   1.000
    O94     O    0.28290   0.33604   0.91353   1.000
    O95     O    0.38120   0.33613   0.83616   1.000
    O96     O    0.28056   0.41839   0.91842   1.000
    O97     O    0.30121   0.33125   0.91847   1.000
    O98     O    0.36775   0.33119   0.83122   1.000
    O99     O    0.30375   0.41359   0.91362   1.000
    O100    O    0.30121   0.41844   0.83128   1.000
    O101    O    0.28290   0.41350   0.83607   1.000
    Zr102   Zr   0.81276   0.87473   0.87477   1.000
    O103    O    0.80121   0.91843   0.83128   1.000
    O104    O    0.78289   0.91349   0.83607   1.000
    O105    O    0.80374   0.91358   0.91362   1.000
    O106    O    0.78289   0.83604   0.91353   1.000
    O107    O    0.80121   0.83124   0.91847   1.000
    O108    O    0.78056   0.91838   0.91842   1.000
    O109    O    0.88120   0.83613   0.83616   1.000
    O110    O    0.86775   0.83118   0.83122   1.000
    Zr111   Zr   0.18725   0.12526   0.12527   1.000
    O112    O    0.21945   0.08162   0.08163   1.000
    O113    O    0.19880   0.08156   0.16876   1.000
    O114    O    0.21711   0.08650   0.16397   1.000
    O115    O    0.11881   0.16387   0.16388   1.000
    O116    O    0.19880   0.16875   0.08157   1.000
    O117    O    0.13226   0.16881   0.16882   1.000
    O118    O    0.19626   0.08642   0.08642   1.000
    O119    O    0.21711   0.16396   0.08651   1.000
    Zr120   Zr   0.43802   0.12448   0.62451   1.000
    O121    O    0.46304   0.16338   0.66340   1.000
    O122    O    0.37384   0.08601   0.66350   1.000
    O123    O    0.37384   0.16347   0.58604   1.000
    O124    O    0.54049   0.08592   0.58595   1.000
    Zr125   Zr   0.93800   0.62448   0.12450   1.000
    O126    O    0.96303   0.66338   0.16338   1.000
    O127    O    0.87383   0.66347   0.08603   1.000
    O128    O    0.87383   0.58601   0.16349   1.000
    O129    O    0.04048   0.58592   0.08594   1.000
    Zr130   Zr   0.93800   0.12448   0.12450   1.000
    O131    O    0.96303   0.16338   0.16340   1.000
    O132    O    0.87382   0.08601   0.16349   1.000
    O133    O    0.04048   0.08592   0.08594   1.000
    O134    O    0.87383   0.16347   0.08603   1.000
    Zr135   Zr   0.68726   0.62525   0.62528   1.000
    O136    O    0.63226   0.66880   0.66883   1.000
    O137    O    0.69627   0.58641   0.58643   1.000
    O138    O    0.71945   0.58161   0.58163   1.000
    O139    O    0.71712   0.66395   0.58652   1.000
    O140    O    0.69880   0.66874   0.58158   1.000
    O141    O    0.61882   0.66386   0.66389   1.000
    O142    O    0.71712   0.58649   0.66398   1.000
    O143    O    0.69881   0.58155   0.66877   1.000
    Zr144   Zr   0.18727   0.62525   0.62528   1.000
    O145    O    0.19882   0.66874   0.58158   1.000
    O146    O    0.21713   0.66395   0.58652   1.000
    O147    O    0.13227   0.66880   0.66883   1.000
    O148    O    0.21713   0.58649   0.66398   1.000
    O149    O    0.19628   0.58640   0.58643   1.000
    O150    O    0.21946   0.58161   0.58163   1.000
    O151    O    0.19882   0.58155   0.66877   1.000
    O152    O    0.11883   0.66386   0.66389   1.000
    Zr153   Zr   0.68724   0.12526   0.12527   1.000
    O154    O    0.61881   0.16387   0.16387   1.000
    O155    O    0.71944   0.08161   0.08163   1.000
    O156    O    0.63225   0.16881   0.16882   1.000
    O157    O    0.71711   0.16396   0.08651   1.000
    O158    O    0.69879   0.16875   0.08157   1.000
    O159    O    0.71710   0.08650   0.16397   1.000
    O160    O    0.69879   0.08156   0.16876   1.000
    O161    O    0.69626   0.08641   0.08642   1.000
    Zr162   Zr   0.31276   0.87473   0.87470   1.000
    O163    O    0.30375   0.91358   0.91358   1.000
    O164    O    0.30121   0.83124   0.91843   1.000
    O165    O    0.38120   0.83613   0.83612   1.000
    O166    O    0.28290   0.83604   0.91349   1.000
    O167    O    0.30121   0.91844   0.83124   1.000
    O168    O    0.28290   0.91349   0.83603   1.000
    O169    O    0.28056   0.91838   0.91837   1.000
    O170    O    0.36776   0.83119   0.83118   1.000
    Zr171   Zr   0.31275   0.37474   0.37477   1.000
    O172    O    0.30120   0.41844   0.33128   1.000
    O173    O    0.28289   0.33604   0.41353   1.000
    O174    O    0.30120   0.33125   0.41847   1.000
    O175    O    0.28289   0.41350   0.33607   1.000
    O176    O    0.30374   0.41359   0.41362   1.000
    O177    O    0.28055   0.41839   0.41841   1.000
    O178    O    0.36774   0.33120   0.33122   1.000
    O179    O    0.38119   0.33614   0.33616   1.000
    Zr180   Zr   0.56199   0.87552   0.37554   1.000
    O181    O    0.62616   0.91399   0.33655   1.000
    O182    O    0.62616   0.83653   0.41401   1.000
    O183    O    0.45951   0.91408   0.41410   1.000
    O184    O    0.53696   0.83662   0.33664   1.000
    Zr185   Zr   0.06201   0.87551   0.87555   1.000
    O186    O    0.95952   0.91407   0.91411   1.000
    O187    O    0.03698   0.83661   0.83665   1.000
    O188    O    0.12618   0.91398   0.83656   1.000
    O189    O    0.12618   0.83652   0.91402   1.000
    Zr190   Zr   0.06200   0.87552   0.37554   1.000
    O191    O    0.12617   0.91399   0.33655   1.000
    O192    O    0.12617   0.83653   0.41401   1.000
    O193    O    0.03696   0.83662   0.33658   1.000
    O194    O    0.95951   0.91408   0.41410   1.000
    Zr195   Zr   0.68725   0.12526   0.62528   1.000
    O196    O    0.69626   0.08641   0.58643   1.000
    O197    O    0.71711   0.08650   0.66398   1.000
    O198    O    0.69880   0.16875   0.58158   1.000
    O199    O    0.71711   0.16395   0.58652   1.000
    O200    O    0.61882   0.16386   0.66388   1.000
    O201    O    0.63226   0.16880   0.66883   1.000
    O202    O    0.69880   0.08155   0.66877   1.000
    O203    O    0.71945   0.08161   0.58163   1.000
    Zr204   Zr   0.68724   0.62526   0.12528   1.000
    O205    O    0.69625   0.58641   0.08643   1.000
    O206    O    0.71711   0.66396   0.08652   1.000
    O207    O    0.69879   0.58156   0.16877   1.000
    O208    O    0.71710   0.58650   0.16398   1.000
    O209    O    0.71944   0.58162   0.08163   1.000
    O210    O    0.69879   0.66875   0.08158   1.000
    O211    O    0.61880   0.66387   0.16388   1.000
    O212    O    0.63225   0.66881   0.16882   1.000
    Zr213   Zr   0.56200   0.87551   0.87555   1.000
    O214    O    0.45952   0.91407   0.91411   1.000
    O215    O    0.62617   0.83653   0.91402   1.000
    O216    O    0.53697   0.83662   0.83665   1.000
    O217    O    0.62617   0.91398   0.83656   1.000
    Zr218   Zr   0.18726   0.12525   0.62528   1.000
    O219    O    0.11882   0.16386   0.66389   1.000
    O220    O    0.21712   0.08649   0.66398   1.000
    O221    O    0.19627   0.08641   0.58643   1.000
    O222    O    0.19881   0.08155   0.66877   1.000
    O223    O    0.13227   0.16880   0.66883   1.000
    O224    O    0.19881   0.16875   0.58158   1.000
    O225    O    0.21946   0.08161   0.58163   1.000
    O226    O    0.21712   0.16395   0.58652   1.000
    Zr227   Zr   0.18725   0.62526   0.12528   1.000
    O228    O    0.19880   0.58156   0.16877   1.000
    O229    O    0.21945   0.58161   0.08163   1.000
    O230    O    0.19626   0.58641   0.08643   1.000
    O231    O    0.11881   0.66387   0.16387   1.000
    O232    O    0.21711   0.58650   0.16398   1.000
    O233    O    0.13226   0.66881   0.16881   1.000
    O234    O    0.21712   0.66396   0.08652   1.000
    O235    O    0.19880   0.66875   0.08158   1.000
    Zr236   Zr   0.43801   0.62448   0.12450   1.000
    O237    O    0.37384   0.66347   0.08603   1.000
    O238    O    0.37384   0.58601   0.16349   1.000
    O239    O    0.54049   0.58592   0.08594   1.000
    O240    O    0.46304   0.66338   0.16340   1.000
    Zr241   Zr   0.43802   0.62447   0.62450   1.000
    O242    O    0.46305   0.66337   0.66340   1.000
    O243    O    0.54049   0.58592   0.58594   1.000
    O244    O    0.37385   0.66346   0.58603   1.000
    O245    O    0.37385   0.58600   0.66349   1.000
    Zr246   Zr   0.56198   0.37552   0.37554   1.000
    O247    O    0.62616   0.41399   0.33655   1.000
    O248    O    0.62616   0.33653   0.41400   1.000
    O249    O    0.53696   0.33662   0.33664   1.000
    O250    O    0.45951   0.41408   0.41410   1.000
    Zr251   Zr   0.56199   0.37552   0.87555   1.000
    O252    O    0.62616   0.33653   0.91402   1.000
    O253    O    0.53697   0.33662   0.83665   1.000
    O254    O    0.62617   0.41399   0.83656   1.000
    O255    O    0.45952   0.41408   0.91411   1.000
loop_
    _geom_bond_atom_site_label_1
    _geom_bond_atom_site_label_2
    _geom_bond_distance
    _geom_bond_site_symmetry_2
    _ccdc_geom_bond_type
    Zr32   O33       1.42048      .   S
    N27    O33       2.92151  1_455   S
    Zr32   O34       1.42132      .   S
    N5     O34       2.92321      .   S
    Zr32   O35       1.42234  1_655   S
    N11    O35       2.92504      .   S
    Zr32   O36       1.42133      .   S
    N7     O36       2.92317  1_565   S
    Zr37   O38       1.42049      .   S
    N26    O38       2.92157  1_455   S
    Zr37   O39       1.42133      .   S
    N8     O39       2.92317      .   S
    Zr37   O40       1.42232  1_655   S
    N9     O40       2.92499      .   S
    Zr37   O41       1.42130      .   S
    N28    O41       2.92312      .   S
    Zr42   O43       1.42123      .   S
    N19    O43       2.92292  1_554   S
    Zr42   O44       1.42047      .   S
    N27    O44       2.92152      .   S
    Zr42   O45       1.42235  1_455   S
    N14    O45       2.92508  1_554   S
    Zr42   O46       1.42132      .   S
    N24    O46       2.92316      .   S
    Zr47   O48       1.42233  1_455   S
    N13    O48       2.92500      .   S
    Zr47   O49       1.42132      .   S
    N16    O49       2.92316      .   S
    Zr47   O50       1.42132      .   S
    N20    O50       2.92318      .   S
    Zr47   O51       1.42046      .   S
    N30    O51       2.92149  1_655   S
    Zr52   O53       1.03686      .   S
    N15    O53       2.08356      .   S
    Zr52   O54       1.03696      .   S
    N22    O54       2.08417  1_545   S
    Zr52   O55       1.03299      .   S
    N28    O55       2.08717      .   S
    Zr52   O56       1.03300      .   S
    N1     O56       2.08721  1_545   S
    Zr52   O57       1.03674      .   S
    N1     O57       2.08389  1_545   S
    Zr52   O58       1.03673      .   S
    N28    O58       2.08385      .   S
    Zr52   O59       1.03317      .   S
    N22    O59       2.08753  1_545   S
    Zr52   O60       1.03299      .   S
    N15    O60       2.08715      .   S
    Zr61   O62       1.42127      .   S
    N19    O62       2.92305      .   S
    Zr61   O63       1.42133      .   S
    N2     O63       2.92317      .   S
    Zr61   O64       1.42029      .   S
    N17    O64       2.92144      .   S
    Zr61   O65       1.42227      .   S
    N29    O65       2.92496  1_565   S
    Zr66   O67       1.03300      .   S
    N2     O67       2.08723  1_545   S
    Zr66   O68       1.03674      .   S
    N2     O68       2.08390  1_545   S
    Zr66   O69       1.03294      .   S
    N31    O69       2.08675      .   S
    Zr66   O70       1.03672      .   S
    N3     O70       2.08385      .   S
    Zr66   O71       1.03299      .   S
    N3     O71       2.08717      .   S
    Zr66   O72       1.03316      .   S
    N11    O72       2.08751  1_545   S
    Zr66   O73       1.03695      .   S
    N11    O73       2.08416  1_545   S
    Zr66   O74       1.03648      .   S
    N31    O74       2.08359      .   S
    Zr75   O76       1.03298      .   S
    N5     O76       2.08715      .   S
    Zr75   O77       1.03285      .   S
    N30    O77       2.08681      .   S
    Zr75   O78       1.03675      .   S
    N0     O78       2.08389      .   S
    Zr75   O79       1.03301      .   S
    N0     O79       2.08720      .   S
    Zr75   O80       1.03313      .   S
    N13    O80       2.08742      .   S
    Zr75   O81       1.03669      .   S
    N5     O81       2.08387      .   S
    Zr75   O82       1.03648      .   S
    N30    O82       2.08357      .   S
    Zr75   O83       1.03690      .   S
    N13    O83       2.08408      .   S
    Zr84   O85       1.03733      .   S
    N14    O85       2.08479  1_554   S
    Zr84   O86       1.03688      .   S
    N4     O86       2.08421  1_554   S
    Zr84   O87       1.03631      .   S
    N27    O87       2.08313  1_455   S
    Zr84   O88       1.03633      .   S
    N8     O88       2.08326      .   S
    Zr84   O89       1.03352      .   S
    N14    O89       2.08817  1_554   S
    Zr84   O90       1.03325      .   S
    N4     O90       2.08745  1_554   S
    Zr84   O91       1.03264      .   S
    N8     O91       2.08654      .   S
    Zr84   O92       1.03255      .   S
    N27    O92       2.08647  1_455   S
    Zr93   O94       1.03672      .   S
    N19    O94       2.08377  1_554   S
    Zr93   O95       1.03646      .   S
    N18    O95       2.08354      .   S
    Zr93   O96       1.03317      .   S
    N10    O96       2.08754  1_554   S
    Zr93   O97       1.03297      .   S
    N19    O97       2.08711  1_554   S
    Zr93   O98       1.03283      .   S
    N18    O98       2.08677      .   S
    Zr93   O99       1.03695      .   S
    N10    O99       2.08419  1_554   S
    Zr93   O100      1.03298      .   S
    N24    O100      2.08715      .   S
    Zr93   O101      1.03670      .   S
    N24    O101      2.08384      .   S
    Zr102  O103      1.03299      .   S
    N7     O103      2.08718      .   S
    Zr102  O104      1.03673      .   S
    N7     O104      2.08386      .   S
    Zr102  O105      1.03695      .   S
    N29    O105      2.08420  1_554   S
    Zr102  O106      1.03672      .   S
    N6     O106      2.08379  1_554   S
    Zr102  O107      1.03297      .   S
    N6     O107      2.08713  1_554   S
    Zr102  O108      1.03318      .   S
    N29    O108      2.08754  1_554   S
    Zr102  O109      1.03647      .   S
    N26    O109      2.08354  1_455   S
    Zr102  O110      1.03282      .   S
    N26    O110      2.08679  1_455   S
    Zr111  O112      1.03314      .   S
    N12    O112      2.08748      .   S
    Zr111  O113      1.03302      .   S
    N2     O113      2.08726      .   S
    Zr111  O114      1.03677      .   S
    N2     O114      2.08393      .   S
    Zr111  O115      1.03648      .   S
    N30    O115      2.08356  1_655   S
    Zr111  O116      1.03297      .   S
    N19    O116      2.08714      .   S
    Zr111  O117      1.03284      .   S
    N30    O117      2.08681  1_655   S
    Zr111  O118      1.03692      .   S
    N12    O118      2.08413      .   S
    Zr111  O119      1.03672      .   S
    N19    O119      2.08381      .   S
    Zr120  O121      1.42028      .   S
    N18    O121      2.92146      .   S
    Zr120  O122      1.42134      .   S
    N23    O122      2.92318  1_565   S
    Zr120  O123      1.42130      .   S
    N20    O123      2.92315      .   S
    Zr120  O124      1.42223      .   S
    N22    O124      2.92487      .   S
    Zr125  O126      1.42025      .   S
    N15    O126      2.92084      .   S
    Zr125  O127      1.42125      .   S
    N6     O127      2.92298      .   S
    Zr125  O128      1.42132      .   S
    N0     O128      2.92316      .   S
    Zr125  O129      1.42234  1_655   S
    N10    O129      2.92506      .   S
    Zr130  O131      1.42049      .   S
    N30    O131      2.92152      .   S
    Zr130  O132      1.42133      .   S
    N1     O132      2.92317      .   S
    Zr130  O133      1.42236  1_655   S
    N12    O133      2.92511      .   S
    Zr130  O134      1.42124      .   S
    N4     O134      2.92296      .   S
    Zr135  O136      1.03282      .   S
    N25    O136      2.08675      .   S
    Zr135  O137      1.03696      .   S
    N13    O137      2.08424      .   S
    Zr135  O138      1.03318      .   S
    N13    O138      2.08760      .   S
    Zr135  O139      1.03674      .   S
    N28    O139      2.08388      .   S
    Zr135  O140      1.03301      .   S
    N28    O140      2.08719      .   S
    Zr135  O141      1.03646      .   S
    N25    O141      2.08352      .   S
    Zr135  O142      1.03673      .   S
    N8     O142      2.08387      .   S
    Zr135  O143      1.03298      .   S
    N8     O143      2.08721      .   S
    Zr144  O145      1.03301      .   S
    N3     O145      2.08720      .   S
    Zr144  O146      1.03674      .   S
    N3     O146      2.08389      .   S
    Zr144  O147      1.03282      .   S
    N26    O147      2.08679      .   S
    Zr144  O148      1.03673      .   S
    N24    O148      2.08386      .   S
    Zr144  O149      1.03698      .   S
    N9     O149      2.08424      .   S
    Zr144  O150      1.03318      .   S
    N9     O150      2.08761      .   S
    Zr144  O151      1.03299      .   S
    N24    O151      2.08718      .   S
    Zr144  O152      1.03647      .   S
    N26    O152      2.08354      .   S
    Zr153  O154      1.03641      .   S
    N17    O154      2.08352      .   S
    Zr153  O155      1.03314      .   S
    N29    O155      2.08748  1_565   S
    Zr153  O156      1.03281      .   S
    N17    O156      2.08671      .   S
    Zr153  O157      1.03671      .   S
    N4     O157      2.08376      .   S
    Zr153  O158      1.03295      .   S
    N4     O158      2.08711      .   S
    Zr153  O159      1.03676      .   S
    N1     O159      2.08392      .   S
    Zr153  O160      1.03302      .   S
    N1     O160      2.08725      .   S
    Zr153  O161      1.03692      .   S
    N29    O161      2.08413  1_565   S
    Zr162  O163      1.03733      .   S
    N12    O163      2.08480  1_544   S
    Zr162  O164      1.03323      .   S
    N21    O164      2.08741  1_554   S
    Zr162  O165      1.03629      .   S
    N25    O165      2.08309      .   S
    Zr162  O166      1.03687      .   S
    N21    O166      2.08416  1_554   S
    Zr162  O167      1.03265      .   S
    N23    O167      2.08655      .   S
    Zr162  O168      1.03635      .   S
    N23    O168      2.08326      .   S
    Zr162  O169      1.03353      .   S
    N12    O169      2.08817  1_544   S
    Zr162  O170      1.03255      .   S
    N25    O170      2.08641      .   S
    Zr171  O172      1.03302      .   S
    N16    O172      2.08721      .   S
    Zr171  O173      1.03672      .   S
    N20    O173      2.08385      .   S
    Zr171  O174      1.03298      .   S
    N20    O174      2.08717      .   S
    Zr171  O175      1.03675      .   S
    N16    O175      2.08390      .   S
    Zr171  O176      1.03691      .   S
    N9     O176      2.08409      .   S
    Zr171  O177      1.03308      .   S
    N9     O177      2.08749      .   S
    Zr171  O178      1.03286      .   S
    N17    O178      2.08679      .   S
    Zr171  O179      1.03647      .   S
    N17    O179      2.08358      .   S
    Zr180  O181      1.42133      .   S
    N1     O181      2.92316  1_545   S
    Zr180  O182      1.42131      .   S
    N28    O182      2.92313      .   S
    Zr180  O183      1.42225      .   S
    N11    O183      2.92490  1_545   S
    Zr180  O184      1.42043      .   S
    N31    O184      2.92154      .   S
    Zr185  O186      1.42238  1_455   S
    N29    O186      2.92514  1_554   S
    Zr185  O187      1.42048      .   S
    N26    O187      2.92155      .   S
    Zr185  O188      1.42133      .   S
    N23    O188      2.92316      .   S
    Zr185  O189      1.42121      .   S
    N21    O189      2.92288  1_554   S
    Zr190  O191      1.42134      .   S
    N2     O191      2.92317  1_545   S
    Zr190  O192      1.42130      .   S
    N3     O192      2.92314      .   S
    Zr190  O193      1.42137      .   S
    N15    O193      2.92149  1_655   S
    Zr190  O194      1.42235  1_455   S
    N22    O194      2.92506  1_545   S
    Zr195  O196      1.03695      .   S
    N22    O196      2.08416      .   S
    Zr195  O197      1.03677      .   S
    N7     O197      2.08392  1_565   S
    Zr195  O198      1.03300      .   S
    N5     O198      2.08721      .   S
    Zr195  O199      1.03673      .   S
    N5     O199      2.08390      .   S
    Zr195  O200      1.03640      .   S
    N18    O200      2.08353      .   S
    Zr195  O201      1.03280      .   S
    N18    O201      2.08670      .   S
    Zr195  O202      1.03302      .   S
    N7     O202      2.08725  1_565   S
    Zr195  O203      1.03316      .   S
    N22    O203      2.08752      .   S
    Zr204  O205      1.03695      .   S
    N14    O205      2.08419      .   S
    Zr204  O206      1.03673      .   S
    N6     O206      2.08381      .   S
    Zr204  O207      1.03299      .   S
    N0     O207      2.08715      .   S
    Zr204  O208      1.03672      .   S
    N0     O208      2.08384      .   S
    Zr204  O209      1.03317      .   S
    N14    O209      2.08754      .   S
    Zr204  O210      1.03298      .   S
    N6     O210      2.08715      .   S
    Zr204  O211      1.03643      .   S
    N31    O211      2.08341      .   S
    Zr204  O212      1.03278      .   S
    N31    O212      2.08666      .   S
    Zr213  O214      1.42227      .   S
    N12    O214      2.92498  1_544   S
    Zr213  O215      1.42124      .   S
    N6     O215      2.92295  1_554   S
    Zr213  O216      1.42041      .   S
    N25    O216      2.92146      .   S
    Zr213  O217      1.42134      .   S
    N7     O217      2.92318      .   S
    Zr218  O219      1.03648      .   S
    N27    O219      2.08357      .   S
    Zr218  O220      1.03676      .   S
    N23    O220      2.08390  1_565   S
    Zr218  O221      1.03695      .   S
    N11    O221      2.08416      .   S
    Zr218  O222      1.03301      .   S
    N23    O222      2.08723  1_565   S
    Zr218  O223      1.03284      .   S
    N27    O223      2.08681      .   S
    Zr218  O224      1.03299      .   S
    N20    O224      2.08718      .   S
    Zr218  O225      1.03316      .   S
    N11    O225      2.08752      .   S
    Zr218  O226      1.03673      .   S
    N20    O226      2.08386      .   S
    Zr227  O228      1.03299      .   S
    N16    O228      2.08716      .   S
    Zr227  O229      1.03317      .   S
    N10    O229      2.08753      .   S
    Zr227  O230      1.03695      .   S
    N10    O230      2.08418      .   S
    Zr227  O231      1.03637      .   S
    N15    O231      2.08309  1_655   S
    Zr227  O232      1.03672      .   S
    N16    O232      2.08385      .   S
    Zr227  O233      1.03266      .   S
    N15    O233      2.08644  1_655   S
    Zr227  O234      1.03673      .   S
    N21    O234      2.08384      .   S
    Zr227  O235      1.03299      .   S
    N21    O235      2.08717      .   S
    Zr236  O237      1.42128      .   S
    N21    O237      2.92304      .   S
    Zr236  O238      1.42133      .   S
    N16    O238      2.92317      .   S
    Zr236  O239      1.42224      .   S
    N14    O239      2.92490      .   S
    Zr236  O240      1.42038      .   S
    N31    O240      2.92136      .   S
    Zr241  O242      1.42045      .   S
    N25    O242      2.92151      .   S
    Zr241  O243      1.42221      .   S
    N13    O243      2.92482      .   S
    Zr241  O244      1.42130      .   S
    N3     O244      2.92313      .   S
    Zr241  O245      1.42133      .   S
    N24    O245      2.92318      .   S
    Zr246  O247      1.42133      .   S
    N0     O247      2.92317      .   S
    Zr246  O248      1.42122      .   S
    N5     O248      2.92317      .   S
    Zr246  O249      1.42043      .   S
    N17    O249      2.92153      .   S
    Zr246  O250      1.42222      .   S
    N9     O250      2.92483      .   S
    Zr251  O252      1.42127      .   S
    N4     O252      2.92301  1_554   S
    Zr251  O253      1.42042      .   S
    N18    O253      2.92154      .   S
    Zr251  O254      1.42133      .   S
    N8     O254      2.92317      .   S
    Zr251  O255      1.42225      .   S
    N10    O255      2.92492  1_554   S
