# CIF file generated by openbabel 2.4.90, see http://openbabel.sf.net
data_I
_chemical_name_common ''
_cell_length_a 17.2
_cell_length_b 18.534
_cell_length_c 18.532
_cell_angle_alpha 77.738
_cell_angle_beta 62.555
_cell_angle_gamma 62.555
_space_group_name_H-M_alt 'P 1'
_space_group_name_Hall 'P 1'
loop_
    _symmetry_equiv_pos_as_xyz
    x,y,z
loop_
    _atom_site_label
    _atom_site_type_symbol
    _atom_site_fract_x
    _atom_site_fract_y
    _atom_site_fract_z
    _atom_site_occupancy
    Zr0     Zr   0.43801   0.12448   0.12450   1.000
    Zr1     Zr   0.43802   0.12448   0.62451   1.000
    Zr2     Zr   0.43801   0.62448   0.12450   1.000
    Zr3     Zr   0.43802   0.62447   0.62450   1.000
    Zr4     Zr   0.93800   0.12448   0.12450   1.000
    Zr5     Zr   0.93800   0.12448   0.62451   1.000
    Zr6     Zr   0.93800   0.62448   0.12450   1.000
    Zr7     Zr   0.93801   0.62447   0.62450   1.000
    Zr8     Zr   0.06199   0.37552   0.37554   1.000
    Zr9     Zr   0.06200   0.37552   0.87555   1.000
    Zr10    Zr   0.06200   0.87552   0.37554   1.000
    Zr11    Zr   0.06201   0.87551   0.87555   1.000
    Zr12    Zr   0.56198   0.37552   0.37554   1.000
    Zr13    Zr   0.56199   0.37552   0.87555   1.000
    Zr14    Zr   0.56199   0.87552   0.37554   1.000
    Zr15    Zr   0.56200   0.87551   0.87555   1.000
    Zr16    Zr   0.31275   0.37474   0.37477   1.000
    Zr17    Zr   0.31276   0.37474   0.87477   1.000
    Zr18    Zr   0.31275   0.87474   0.37477   1.000
    Zr19    Zr   0.31276   0.87473   0.87470   1.000
    Zr20    Zr   0.81274   0.37474   0.37477   1.000
    Zr21    Zr   0.81275   0.37474   0.87470   1.000
    Zr22    Zr   0.81274   0.87474   0.37477   1.000
    Zr23    Zr   0.81275   0.87473   0.87477   1.000
    Zr24    Zr   0.18725   0.12526   0.12527   1.000
    Zr25    Zr   0.18726   0.12525   0.62528   1.000
    Zr26    Zr   0.18725   0.62526   0.12528   1.000
    Zr27    Zr   0.18727   0.62525   0.62528   1.000
    Zr28    Zr   0.68724   0.12526   0.12527   1.000
    Zr29    Zr   0.68725   0.12526   0.62528   1.000
    Zr30    Zr   0.68724   0.62526   0.12528   1.000
    Zr31    Zr   0.68726   0.62525   0.62528   1.000
    N32     N    0.74999   0.50000   0.25002   1.000
    O33     O    0.74696   0.54774   0.20268   1.000
    O34     O    0.80965   0.54754   0.20248   1.000
    O35     O    0.75302   0.45227   0.29737   1.000
    O36     O    0.69033   0.45246   0.29756   1.000
    O37     O    0.78964   0.46215   0.28779   1.000
    O38     O    0.71034   0.53786   0.21226   1.000
    N39     N    0.74999   0.00000   0.25002   1.000
    O40     O    0.80965   0.04754   0.20248   1.000
    O41     O    0.74696   0.04774   0.20268   1.000
    O42     O    0.75302   0.95227   0.29737   1.000
    O43     O    0.69033   0.95246   0.29756   1.000
    O44     O    0.78964   0.96215   0.28779   1.000
    O45     O    0.71034   0.03786   0.21225   1.000
    N46     N    0.25000   0.00000   0.25002   1.000
    O47     O    0.25303   0.95227   0.29737   1.000
    O48     O    0.19034   0.95246   0.29756   1.000
    O49     O    0.28965   0.96215   0.28779   1.000
    O50     O    0.21035   0.03786   0.21225   1.000
    O51     O    0.30966   0.04755   0.20248   1.000
    O52     O    0.24697   0.04774   0.20268   1.000
    N53     N    0.25001   0.75000   0.50002   1.000
    O54     O    0.30968   0.70245   0.54756   1.000
    O55     O    0.24699   0.70265   0.54775   1.000
    O56     O    0.19034   0.79754   0.45248   1.000
    O57     O    0.25303   0.79735   0.45229   1.000
    O58     O    0.21036   0.71223   0.53787   1.000
    O59     O    0.28966   0.78776   0.46217   1.000
    N60     N    0.75000   0.25000   0.00002   1.000
    O61     O    0.80966   0.20246   0.04756   1.000
    O62     O    0.74697   0.20265   0.04775   1.000
    O63     O    0.69033   0.29754   0.95249   1.000
    O64     O    0.75302   0.29734   0.95227   1.000
    O65     O    0.71034   0.21224   0.03787   1.000
    O66     O    0.78965   0.28776   0.96216   1.000
    N67     N    0.75000   0.25000   0.50002   1.000
    O68     O    0.80966   0.20246   0.54756   1.000
    O69     O    0.74697   0.20265   0.54776   1.000
    O70     O    0.75302   0.29735   0.45228   1.000
    O71     O    0.69033   0.29754   0.45247   1.000
    O72     O    0.71035   0.21224   0.53787   1.000
    O73     O    0.78964   0.28776   0.46217   1.000
    N74     N    0.75000   0.75000   0.00002   1.000
    O75     O    0.80966   0.70246   0.04756   1.000
    O76     O    0.74697   0.70265   0.04776   1.000
    O77     O    0.78966   0.78775   0.96217   1.000
    O78     O    0.69034   0.79754   0.95249   1.000
    O79     O    0.75303   0.79734   0.95229   1.000
    O80     O    0.71035   0.71224   0.03787   1.000
    N81     N    0.75000   0.99999   0.75003   1.000
    O82     O    0.80966   0.04754   0.70249   1.000
    O83     O    0.74697   0.04773   0.70268   1.000
    O84     O    0.69034   0.95245   0.79757   1.000
    O85     O    0.75303   0.95226   0.79737   1.000
    O86     O    0.78966   0.96214   0.78779   1.000
    O87     O    0.71035   0.03785   0.71226   1.000
    N88     N    0.75000   0.49999   0.75003   1.000
    O89     O    0.74698   0.54773   0.70268   1.000
    O90     O    0.80967   0.54754   0.70249   1.000
    O91     O    0.69034   0.45246   0.79757   1.000
    O92     O    0.75303   0.45226   0.79736   1.000
    O93     O    0.78965   0.46214   0.78777   1.000
    O94     O    0.71035   0.53785   0.71226   1.000
    N95     N    0.25001   0.50000   0.50002   1.000
    O96     O    0.24836   0.46204   0.46205   1.000
    O97     O    0.14297   0.54736   0.54738   1.000
    O98     O    0.20529   0.54756   0.54758   1.000
    O99     O    0.25166   0.53796   0.53798   1.000
    O100    O    0.35704   0.45263   0.45266   1.000
    O101    O    0.29473   0.45244   0.45246   1.000
    N102    N    0.25000   0.50000   0.00002   1.000
    O103    O    0.24836   0.46203   0.96206   1.000
    O104    O    0.25165   0.53797   0.03799   1.000
    O105    O    0.14296   0.54737   0.04738   1.000
    O106    O    0.20528   0.54756   0.04758   1.000
    O107    O    0.35704   0.45263   0.95266   1.000
    O108    O    0.29473   0.45244   0.95247   1.000
    N109    N    0.25000   0.00000   0.50002   1.000
    O110    O    0.24836   0.96204   0.46206   1.000
    O111    O    0.25165   0.03796   0.53799   1.000
    O112    O    0.14297   0.04737   0.54739   1.000
    O113    O    0.20528   0.04756   0.54758   1.000
    O114    O    0.29473   0.95244   0.45247   1.000
    O115    O    0.35704   0.95263   0.45266   1.000
    N116    N    0.25001   0.00000   0.00002   1.000
    O117    O    0.24836   0.96203   0.96204   1.000
    O118    O    0.25165   0.03797   0.03798   1.000
    O119    O    0.14296   0.04737   0.04738   1.000
    O120    O    0.20528   0.04757   0.04757   1.000
    O121    O    0.29474   0.95243   0.95245   1.000
    O122    O    0.35704   0.95263   0.95266   1.000
    N123    N    0.75000   0.50000   0.50002   1.000
    O124    O    0.74835   0.46204   0.46206   1.000
    O125    O    0.64297   0.54736   0.54738   1.000
    O126    O    0.70527   0.54756   0.54758   1.000
    O127    O    0.85703   0.45263   0.45266   1.000
    O128    O    0.79472   0.45244   0.45246   1.000
    O129    O    0.75165   0.53796   0.53798   1.000
    N130    N    0.75000   0.50000   0.00002   1.000
    O131    O    0.74835   0.46203   0.96204   1.000
    O132    O    0.64296   0.54737   0.04738   1.000
    O133    O    0.70527   0.54756   0.04758   1.000
    O134    O    0.85704   0.45263   0.95266   1.000
    O135    O    0.79472   0.45244   0.95245   1.000
    O136    O    0.75164   0.53797   0.03799   1.000
    N137    N    0.99999   0.75000   0.24996   1.000
    O138    O    0.07726   0.71236   0.21234   1.000
    O139    O    0.05037   0.70248   0.20246   1.000
    O140    O    0.98806   0.70228   0.20227   1.000
    O141    O    0.92273   0.78765   0.28764   1.000
    O142    O    0.94962   0.79753   0.29742   1.000
    O143    O    0.01193   0.79773   0.29761   1.000
    N144    N    0.25000   0.50000   0.25002   1.000
    O145    O    0.28965   0.46215   0.28779   1.000
    O146    O    0.19034   0.45246   0.29756   1.000
    O147    O    0.25303   0.45226   0.29737   1.000
    O148    O    0.21035   0.53786   0.21226   1.000
    O149    O    0.24697   0.54774   0.20268   1.000
    O150    O    0.30966   0.54754   0.20248   1.000
    N151    N    0.50000   0.25000   0.25001   1.000
    O152    O    0.42274   0.28765   0.28766   1.000
    O153    O    0.57726   0.21236   0.21236   1.000
    O154    O    0.44962   0.29753   0.29754   1.000
    O155    O    0.51193   0.29773   0.29774   1.000
    O156    O    0.48806   0.20228   0.20228   1.000
    O157    O    0.55037   0.20248   0.20247   1.000
    N158    N    0.50001   0.25000   0.75002   1.000
    O159    O    0.57727   0.21235   0.71237   1.000
    O160    O    0.51194   0.29772   0.79775   1.000
    O161    O    0.44964   0.29753   0.79755   1.000
    O162    O    0.42275   0.28765   0.78767   1.000
    O163    O    0.48807   0.20228   0.70229   1.000
    O164    O    0.55038   0.20247   0.70248   1.000
    N165    N    0.25001   0.25000   0.00002   1.000
    O166    O    0.30967   0.20246   0.04756   1.000
    O167    O    0.24698   0.20266   0.04775   1.000
    O168    O    0.19034   0.29754   0.95248   1.000
    O169    O    0.25303   0.29735   0.95229   1.000
    O170    O    0.28966   0.28776   0.96217   1.000
    O171    O    0.21035   0.21224   0.03787   1.000
    N172    N    0.25001   0.25000   0.50002   1.000
    O173    O    0.30967   0.20246   0.54757   1.000
    O174    O    0.24698   0.20265   0.54776   1.000
    O175    O    0.28966   0.28776   0.46217   1.000
    O176    O    0.25303   0.29735   0.45229   1.000
    O177    O    0.19034   0.29754   0.45248   1.000
    O178    O    0.21036   0.21224   0.53788   1.000
    N179    N    0.25001   0.75000   0.00002   1.000
    O180    O    0.30967   0.70246   0.04756   1.000
    O181    O    0.24698   0.70265   0.04775   1.000
    O182    O    0.19035   0.79754   0.95248   1.000
    O183    O    0.25304   0.79734   0.95227   1.000
    O184    O    0.28966   0.78775   0.96215   1.000
    O185    O    0.21035   0.71224   0.03787   1.000
    N186    N    0.74999   0.00000   0.50002   1.000
    O187    O    0.74835   0.96204   0.46206   1.000
    O188    O    0.64296   0.04737   0.54739   1.000
    O189    O    0.70527   0.04756   0.54758   1.000
    O190    O    0.85703   0.95263   0.45266   1.000
    O191    O    0.79472   0.95244   0.45247   1.000
    O192    O    0.75164   0.03796   0.53799   1.000
    N193    N    0.25001   0.99999   0.75003   1.000
    O194    O    0.25304   0.95226   0.79735   1.000
    O195    O    0.19035   0.95245   0.79757   1.000
    O196    O    0.28966   0.96214   0.78777   1.000
    O197    O    0.21036   0.03785   0.71226   1.000
    O198    O    0.30967   0.04754   0.70249   1.000
    O199    O    0.24698   0.04773   0.70268   1.000
    N200    N    0.25001   0.49999   0.75003   1.000
    O201    O    0.28966   0.46214   0.78779   1.000
    O202    O    0.25304   0.45226   0.79737   1.000
    O203    O    0.19035   0.45246   0.79757   1.000
    O204    O    0.21036   0.53785   0.71226   1.000
    O205    O    0.24699   0.54773   0.70268   1.000
    O206    O    0.30968   0.54754   0.70249   1.000
    N207    N    0.50001   0.74999   0.75003   1.000
    O208    O    0.57727   0.71235   0.71238   1.000
    O209    O    0.51195   0.79772   0.79775   1.000
    O210    O    0.44964   0.79752   0.79754   1.000
    O211    O    0.42275   0.78764   0.78766   1.000
    O212    O    0.55038   0.70246   0.70250   1.000
    O213    O    0.48807   0.70227   0.70230   1.000
    N214    N    0.00001   0.74999   0.75002   1.000
    O215    O    0.07728   0.71234   0.71238   1.000
    O216    O    0.92275   0.78764   0.78767   1.000
    O217    O    0.05039   0.70246   0.70249   1.000
    O218    O    0.98808   0.70227   0.70230   1.000
    O219    O    0.94964   0.79752   0.79755   1.000
    O220    O    0.01195   0.79772   0.79775   1.000
    N221    N    0.00001   0.25000   0.75003   1.000
    O222    O    0.07727   0.21235   0.71238   1.000
    O223    O    0.05039   0.20247   0.70250   1.000
    O224    O    0.98807   0.20227   0.70231   1.000
    O225    O    0.94963   0.29753   0.79754   1.000
    O226    O    0.01194   0.29772   0.79775   1.000
    O227    O    0.92274   0.28764   0.78766   1.000
    N228    N    0.75000   0.75000   0.50002   1.000
    O229    O    0.80967   0.70245   0.54756   1.000
    O230    O    0.74698   0.70265   0.54776   1.000
    O231    O    0.69033   0.79754   0.45248   1.000
    O232    O    0.75302   0.79735   0.45229   1.000
    O233    O    0.71035   0.71223   0.53787   1.000
    O234    O    0.78965   0.78776   0.46217   1.000
    N235    N    0.75000   1.00000   0.00002   1.000
    O236    O    0.64296   0.04737   0.04738   1.000
    O237    O    0.70527   0.04756   0.04757   1.000
    O238    O    0.85704   0.95263   0.95266   1.000
    O239    O    0.79473   0.95243   0.95247   1.000
    O240    O    0.75164   0.03796   0.03798   1.000
    O241    O    0.74836   0.96203   0.96206   1.000
    N242    N    0.99999   0.25001   0.25002   1.000
    O243    O    0.07726   0.21236   0.21237   1.000
    O244    O    0.98806   0.20228   0.20230   1.000
    O245    O    0.05037   0.20248   0.20249   1.000
    O246    O    0.94962   0.29753   0.29755   1.000
    O247    O    0.01193   0.29773   0.29774   1.000
    O248    O    0.92273   0.28765   0.28767   1.000
    N249    N    0.49999   0.75000   0.25001   1.000
    O250    O    0.57725   0.71236   0.21237   1.000
    O251    O    0.44962   0.79753   0.29754   1.000
    O252    O    0.51193   0.79773   0.29774   1.000
    O253    O    0.42274   0.78765   0.28765   1.000
    O254    O    0.48806   0.70228   0.20229   1.000
    O255    O    0.55037   0.70248   0.20249   1.000
loop_
    _geom_bond_atom_site_label_1
    _geom_bond_atom_site_label_2
    _geom_bond_distance
    _geom_bond_site_symmetry_2
    _ccdc_geom_bond_type
    N32    O33       1.10689      .   S
    Zr30   O33       2.07344      .   S
    N32    O34       1.50863      .   S
    Zr6    O34       2.84265      .   S
    N32    O35       1.10692      .   S
    Zr20   O35       2.07349      .   S
    N32    O36       1.50864      .   S
    Zr12   O36       2.84266      .   S
    N32    O37       1.11242      .   S
    Zr20   O37       2.06603      .   S
    N32    O38       1.11239      .   S
    Zr30   O38       2.06598      .   S
    N39    O40       1.50863      .   S
    Zr4    O40       2.84266      .   S
    N39    O41       1.10693      .   S
    Zr28   O41       2.07353      .   S
    N39    O42       1.10692  1_545   S
    Zr22   O42       2.07347      .   S
    N39    O43       1.50863  1_545   S
    Zr14   O43       2.84266      .   S
    N39    O44       1.11245  1_545   S
    Zr22   O44       2.06600      .   S
    N39    O45       1.11246      .   S
    Zr28   O45       2.06605      .   S
    N46    O47       1.10693  1_545   S
    Zr18   O47       2.07348      .   S
    N46    O48       1.50863  1_545   S
    Zr10   O48       2.84267      .   S
    N46    O49       1.11245  1_545   S
    Zr18   O49       2.06601      .   S
    N46    O50       1.11246      .   S
    Zr24   O50       2.06605      .   S
    N46    O51       1.50863      .   S
    Zr0    O51       2.84266      .   S
    N46    O52       1.10693      .   S
    Zr24   O52       2.07353      .   S
    N53    O54       1.50862      .   S
    Zr3    O54       2.84260      .   S
    N53    O55       1.10692      .   S
    Zr27   O55       2.07349      .   S
    N53    O56       1.50863      .   S
    Zr10   O56       2.84259      .   S
    N53    O57       1.10691      .   S
    Zr18   O57       2.07344      .   S
    N53    O58       1.11242      .   S
    Zr27   O58       2.06603      .   S
    N53    O59       1.11241      .   S
    Zr18   O59       2.06598      .   S
    N60    O61       1.50851      .   S
    Zr4    O61       2.84248      .   S
    N60    O62       1.10683      .   S
    Zr28   O62       2.07341      .   S
    N60    O63       1.50854  1_554   S
    Zr13   O63       2.84253      .   S
    N60    O64       1.10706  1_554   S
    Zr21   O64       2.07376      .   S
    N60    O65       1.11239      .   S
    Zr28   O65       2.06591      .   S
    N60    O66       1.11247  1_554   S
    Zr21   O66       2.06649      .   S
    N67    O68       1.50869      .   S
    Zr5    O68       2.84264      .   S
    N67    O69       1.10695      .   S
    Zr29   O69       2.07347      .   S
    N67    O70       1.10700      .   S
    Zr20   O70       2.07338      .   S
    N67    O71       1.50875      .   S
    Zr12   O71       2.84244      .   S
    N67    O72       1.11243      .   S
    Zr29   O72       2.06600      .   S
    N67    O73       1.11240      .   S
    Zr20   O73       2.06595      .   S
    N74    O75       1.50852      .   S
    Zr6    O75       2.84250      .   S
    N74    O76       1.10685      .   S
    Zr30   O76       2.07346      .   S
    N74    O77       1.11239  1_554   S
    Zr23   O77       2.06594      .   S
    N74    O78       1.50850  1_554   S
    Zr15   O78       2.84248      .   S
    N74    O79       1.10684  1_554   S
    Zr23   O79       2.07344      .   S
    N74    O80       1.11240      .   S
    Zr30   O80       2.06596      .   S
    N81    O82       1.50863  1_565   S
    Zr5    O82       2.84266      .   S
    N81    O83       1.10692  1_565   S
    Zr29   O83       2.07353      .   S
    N81    O84       1.50863      .   S
    Zr15   O84       2.84268      .   S
    N81    O85       1.10691      .   S
    Zr23   O85       2.07345      .   S
    N81    O86       1.11242      .   S
    Zr23   O86       2.06599      .   S
    N81    O87       1.11246  1_565   S
    Zr29   O87       2.06604      .   S
    N88    O89       1.10691      .   S
    Zr31   O89       2.07346      .   S
    N88    O90       1.50864      .   S
    Zr7    O90       2.84265      .   S
    N88    O91       1.50864      .   S
    Zr13   O91       2.84266      .   S
    N88    O92       1.10671      .   S
    Zr21   O92       2.07266      .   S
    N88    O93       1.11216      .   S
    Zr21   O93       2.06528      .   S
    N88    O94       1.11246      .   S
    Zr31   O94       2.06596      .   S
    N95    O96       1.11263      .   S
    Zr16   O96       2.06617      .   S
    N95    O97       1.50943      .   S
    Zr7    O97       2.84463  1_655   S
    N95    O98       1.10704      .   S
    Zr27   O98       2.07396      .   S
    N95    O99       1.11263      .   S
    Zr27   O99       2.06637      .   S
    N95    O100      1.50936      .   S
    Zr12   O100      2.84444      .   S
    N95    O101      1.10697      .   S
    Zr16   O101      2.07382      .   S
    N102   O103      1.11258  1_554   S
    Zr17   O103      2.06634      .   S
    N102   O104      1.11257      .   S
    Zr26   O104      2.06633      .   S
    N102   O105      1.50948      .   S
    Zr6    O105      2.84468  1_655   S
    N102   O106      1.10703      .   S
    Zr26   O106      2.07390      .   S
    N102   O107      1.50942  1_554   S
    Zr13   O107      2.84450      .   S
    N102   O108      1.10703  1_554   S
    Zr17   O108      2.07391      .   S
    N109   O110      1.11256  1_545   S
    Zr18   O110      2.06632      .   S
    N109   O111      1.11256      .   S
    Zr25   O111      2.06632      .   S
    N109   O112      1.50946      .   S
    Zr5    O112      2.84467  1_655   S
    N109   O113      1.10700      .   S
    Zr25   O113      2.07390      .   S
    N109   O114      1.10700  1_545   S
    Zr18   O114      2.07390      .   S
    N109   O115      1.50940  1_545   S
    Zr14   O115      2.84450      .   S
    N116   O117      1.11282  1_544   S
    Zr19   O117      2.06705      .   S
    N116   O118      1.11254      .   S
    Zr24   O118      2.06628      .   S
    N116   O119      1.50950      .   S
    Zr4    O119      2.84472  1_655   S
    N116   O120      1.10700      .   S
    Zr24   O120      2.07385      .   S
    N116   O121      1.10726  1_544   S
    Zr19   O121      2.07467      .   S
    N116   O122      1.50945  1_544   S
    Zr15   O122      2.84455      .   S
    N123   O124      1.11251      .   S
    Zr20   O124      2.06625      .   S
    N123   O125      1.50937      .   S
    Zr3    O125      2.84441      .   S
    N123   O126      1.10706      .   S
    Zr31   O126      2.07392      .   S
    N123   O127      1.50943      .   S
    Zr8    O127      2.84466  1_455   S
    N123   O128      1.10696      .   S
    Zr20   O128      2.07380      .   S
    N123   O129      1.11263      .   S
    Zr31   O129      2.06636      .   S
    N130   O131      1.11283  1_554   S
    Zr21   O131      2.06703      .   S
    N130   O132      1.50942      .   S
    Zr2    O132      2.84448      .   S
    N130   O133      1.10704      .   S
    Zr30   O133      2.07390      .   S
    N130   O134      1.50948  1_554   S
    Zr9    O134      2.84471  1_455   S
    N130   O135      1.10725  1_554   S
    Zr21   O135      2.07467      .   S
    N130   O136      1.11257      .   S
    Zr30   O136      2.06634      .   S
    N137   O138      1.11211  1_655   S
    Zr26   O138      2.06532      .   S
    N137   O139      1.10645  1_655   S
    Zr26   O139      2.07275      .   S
    N137   O140      1.50743      .   S
    Zr6    O140      2.84051      .   S
    N137   O141      1.11237      .   S
    Zr22   O141      2.06598      .   S
    N137   O142      1.10610      .   S
    Zr22   O142      2.07372      .   S
    N137   O143      1.50694  1_655   S
    Zr10   O143      2.84274      .   S
    N144   O145      1.11242      .   S
    Zr16   O145      2.06604      .   S
    N144   O146      1.50863      .   S
    Zr8    O146      2.84264      .   S
    N144   O147      1.10692      .   S
    Zr16   O147      2.07350      .   S
    N144   O148      1.11240      .   S
    Zr26   O148      2.06599      .   S
    N144   O149      1.10690      .   S
    Zr26   O149      2.07345      .   S
    N144   O150      1.50863      .   S
    Zr2    O150      2.84266      .   S
    N151   O152      1.11220      .   S
    Zr16   O152      2.06571      .   S
    N151   O153      1.11217      .   S
    Zr28   O153      2.06561      .   S
    N151   O154      1.10687      .   S
    Zr16   O154      2.07295      .   S
    N151   O155      1.50794      .   S
    Zr12   O155      2.84086      .   S
    N151   O156      1.50799      .   S
    Zr0    O156      2.84059      .   S
    N151   O157      1.10691      .   S
    Zr28   O157      2.07282      .   S
    N158   O159      1.11217      .   S
    Zr29   O159      2.06561      .   S
    N158   O160      1.50795      .   S
    Zr13   O160      2.84085      .   S
    N158   O161      1.10686      .   S
    Zr17   O161      2.07292      .   S
    N158   O162      1.11220      .   S
    Zr17   O162      2.06565      .   S
    N158   O163      1.50802      .   S
    Zr1    O163      2.84055      .   S
    N158   O164      1.10693      .   S
    Zr29   O164      2.07280      .   S
    N165   O166      1.50857      .   S
    Zr0    O166      2.84255      .   S
    N165   O167      1.10686      .   S
    Zr24   O167      2.07344      .   S
    N165   O168      1.50848  1_554   S
    Zr9    O168      2.84246      .   S
    N165   O169      1.10682  1_554   S
    Zr17   O169      2.07344      .   S
    N165   O170      1.11238  1_554   S
    Zr17   O170      2.06594      .   S
    N165   O171      1.11240      .   S
    Zr24   O171      2.06594      .   S
    N172   O173      1.50864      .   S
    Zr1    O173      2.84260      .   S
    N172   O174      1.10691      .   S
    Zr25   O174      2.07345      .   S
    N172   O175      1.11241      .   S
    Zr16   O175      2.06597      .   S
    N172   O176      1.10692      .   S
    Zr16   O176      2.07344      .   S
    N172   O177      1.50865      .   S
    Zr8    O177      2.84263      .   S
    N172   O178      1.11242      .   S
    Zr25   O178      2.06598      .   S
    N179   O180      1.50856      .   S
    Zr2    O180      2.84255      .   S
    N179   O181      1.10688      .   S
    Zr26   O181      2.07347      .   S
    N179   O182      1.50846  1_554   S
    Zr11   O182      2.84242      .   S
    N179   O183      1.10702  1_554   S
    Zr19   O183      2.07375      .   S
    N179   O184      1.11245  1_554   S
    Zr19   O184      2.06647      .   S
    N179   O185      1.11241      .   S
    Zr26   O185      2.06599      .   S
    N186   O187      1.11257  1_545   S
    Zr22   O187      2.06634      .   S
    N186   O188      1.50939      .   S
    Zr1    O188      2.84446      .   S
    N186   O189      1.10700      .   S
    Zr29   O189      2.07390      .   S
    N186   O190      1.50946  1_545   S
    Zr10   O190      2.84470  1_455   S
    N186   O191      1.10701  1_545   S
    Zr22   O191      2.07392      .   S
    N186   O192      1.11256      .   S
    Zr29   O192      2.06632      .   S
    N193   O194      1.10669      .   S
    Zr19   O194      2.07269      .   S
    N193   O195      1.50863      .   S
    Zr11   O195      2.84266      .   S
    N193   O196      1.11216      .   S
    Zr19   O196      2.06530      .   S
    N193   O197      1.11245  1_565   S
    Zr25   O197      2.06603      .   S
    N193   O198      1.50863  1_565   S
    Zr1    O198      2.84268      .   S
    N193   O199      1.10692  1_565   S
    Zr25   O199      2.07352      .   S
    N200   O201      1.11241      .   S
    Zr17   O201      2.06595      .   S
    N200   O202      1.10691      .   S
    Zr17   O202      2.07340      .   S
    N200   O203      1.50863      .   S
    Zr9    O203      2.84264      .   S
    N200   O204      1.11242      .   S
    Zr27   O204      2.06598      .   S
    N200   O205      1.10691      .   S
    Zr27   O205      2.07346      .   S
    N200   O206      1.50864      .   S
    Zr3    O206      2.84266      .   S
    N207   O208      1.11219      .   S
    Zr31   O208      2.06565      .   S
    N207   O209      1.50789      .   S
    Zr15   O209      2.84082      .   S
    N207   O210      1.10661      .   S
    Zr19   O210      2.07258      .   S
    N207   O211      1.11211      .   S
    Zr19   O211      2.06510      .   S
    N207   O212      1.10682      .   S
    Zr31   O212      2.07292      .   S
    N207   O213      1.50790      .   S
    Zr3    O213      2.84090      .   S
    N214   O215      1.11224      .   S
    Zr27   O215      2.06564      .   S
    N214   O216      1.11224  1_455   S
    Zr23   O216      2.06564      .   S
    N214   O217      1.10683      .   S
    Zr27   O217      2.07293      .   S
    N214   O218      1.50791  1_455   S
    Zr7    O218      2.84099      .   S
    N214   O219      1.10683  1_455   S
    Zr23   O219      2.07294      .   S
    N214   O220      1.50791      .   S
    Zr11   O220      2.84096      .   S
    N221   O222      1.11225      .   S
    Zr25   O222      2.06568      .   S
    N221   O223      1.10683      .   S
    Zr25   O223      2.07297      .   S
    N221   O224      1.50787  1_455   S
    Zr5    O224      2.84096      .   S
    N221   O225      1.10661  1_455   S
    Zr21   O225      2.07263      .   S
    N221   O226      1.50789      .   S
    Zr9    O226      2.84094      .   S
    N221   O227      1.11217  1_455   S
    Zr21   O227      2.06511      .   S
    N228   O229      1.50861      .   S
    Zr7    O229      2.84260      .   S
    N228   O230      1.10691      .   S
    Zr31   O230      2.07348      .   S
    N228   O231      1.50861      .   S
    Zr14   O231      2.84263      .   S
    N228   O232      1.10689      .   S
    Zr22   O232      2.07346      .   S
    N228   O233      1.11242      .   S
    Zr31   O233      2.06602      .   S
    N228   O234      1.11241      .   S
    Zr22   O234      2.06598      .   S
    N235   O236      1.50945  1_565   S
    Zr0    O236      2.84453      .   S
    N235   O237      1.10700  1_565   S
    Zr28   O237      2.07385      .   S
    N235   O238      1.50952  1_554   S
    Zr11   O238      2.84475  1_455   S
    N235   O239      1.10704  1_554   S
    Zr23   O239      2.07391      .   S
    N235   O240      1.11254  1_565   S
    Zr28   O240      2.06628      .   S
    N235   O241      1.11256  1_554   S
    Zr23   O241      2.06636      .   S
    N242   O243      1.11225  1_655   S
    Zr24   O243      2.06568      .   S
    N242   O244      1.50788      .   S
    Zr4    O244      2.84097      .   S
    N242   O245      1.10682  1_655   S
    Zr24   O245      2.07297      .   S
    N242   O246      1.10683      .   S
    Zr20   O246      2.07297      .   S
    N242   O247      1.50788  1_655   S
    Zr8    O247      2.84092      .   S
    N242   O248      1.11224      .   S
    Zr20   O248      2.06569      .   S
    N249   O250      1.11215      .   S
    Zr30   O250      2.06556      .   S
    N249   O251      1.10688      .   S
    Zr18   O251      2.07295      .   S
    N249   O252      1.50795      .   S
    Zr14   O252      2.84086      .   S
    N249   O253      1.11215      .   S
    Zr18   O253      2.06587      .   S
    N249   O254      1.50781      .   S
    Zr2    O254      2.84076      .   S
    N249   O255      1.10674      .   S
    Zr30   O255      2.07285      .   S
