# CIF file generated by openbabel 2.4.90, see http://openbabel.sf.net
data_I
_chemical_name_common ''
_cell_length_a 10.563
_cell_length_b 11.365
_cell_length_c 16.816
_cell_angle_alpha 98.438
_cell_angle_beta 95.506
_cell_angle_gamma 101.269
_space_group_name_H-M_alt 'P 1'
_space_group_name_Hall 'P 1'
loop_
    _symmetry_equiv_pos_as_xyz
    x,y,z
loop_
    _atom_site_label
    _atom_site_type_symbol
    _atom_site_fract_x
    _atom_site_fract_y
    _atom_site_fract_z
    _atom_site_occupancy
    P0      P    0.75051   0.73685   0.61544   1.000
    P1      P    0.73175   0.70972   0.11772   1.000
    P2      P    0.75661   0.21085   0.61328   1.000
    P3      P    0.73553   0.23360   0.11424   1.000
    P4      P    0.22797   0.74550   0.61708   1.000
    P5      P    0.23611   0.72811   0.11339   1.000
    P6      P    0.25995   0.20843   0.60996   1.000
    P7      P    0.23766   0.21804   0.11927   1.000
    P8      P    0.76516   0.76613   0.88011   1.000
    P9      P    0.74445   0.74051   0.38267   1.000
    P10     P    0.76283   0.24183   0.88283   1.000
    P11     P    0.73985   0.26515   0.38393   1.000
    P12     P    0.26105   0.74673   0.88496   1.000
    P13     P    0.26811   0.72817   0.38075   1.000
    P14     P    0.26127   0.25820   0.87796   1.000
    P15     P    0.23750   0.26676   0.38710   1.000
    F16     F    0.89494   0.56308   0.98967   1.000
    F17     F    0.43304   0.57042   0.97216   1.000
    F18     F    0.40000   0.06021   0.99315   1.000
    F19     F    0.59993   0.91432   0.00695   1.000
    F20     F    0.06660   0.90487   0.02776   1.000
