# CIF file generated by openbabel 2.4.90, see http://openbabel.sf.net
data_I
_chemical_name_common ''
_cell_length_a 10.563
_cell_length_b 11.365
_cell_length_c 16.816
_cell_angle_alpha 98.438
_cell_angle_beta 95.506
_cell_angle_gamma 101.269
_space_group_name_H-M_alt 'P 1'
_space_group_name_Hall 'P 1'
loop_
    _symmetry_equiv_pos_as_xyz
    x,y,z
loop_
    _atom_site_label
    _atom_site_type_symbol
    _atom_site_fract_x
    _atom_site_fract_y
    _atom_site_fract_z
    _atom_site_occupancy
    Ga0     Ga   0.97842   0.75879   0.50725   1.000
    Ga1     Ga   0.03536   0.23482   0.00000   1.000
    Ga2     Ga   0.99921   0.23615   0.49939   1.000
    Ga3     Ga   0.53413   0.73537   0.98075   1.000
    Ga4     Ga   0.51635   0.71959   0.49185   1.000
    Ga5     Ga   0.46258   0.23978   0.01387   1.000
    Ga6     Ga   0.49779   0.23923   0.49747   1.000
    Ga7     Ga   0.74622   0.02481   0.97872   1.000
    Ga8     Ga   0.76067   0.96167   0.51279   1.000
    Ga9     Ga   0.75109   0.45047   0.01840   1.000
    Ga10    Ga   0.73357   0.51483   0.48410   1.000
    Ga11    Ga   0.25146   0.95484   0.02366   1.000
    Ga12    Ga   0.27806   0.95462   0.51149   1.000
    Ga13    Ga   0.24779   0.52059   0.97503   1.000
    Ga14    Ga   0.21977   0.52016   0.48648   1.000
    Ga15    Ga   0.96304   0.74046   0.01736   1.000
    F16     F    0.92228   0.58427   0.48650   1.000
    F17     F    0.93275   0.07046   0.97929   1.000
    F18     F    0.91116   0.05473   0.48284   1.000
    F19     F    0.41622   0.57038   0.50696   1.000
    F20     F    0.42270   0.05990   0.48279   1.000
    F21     F    0.57168   0.89458   0.51030   1.000
    F22     F    0.58356   0.42033   0.51370   1.000
    F23     F    0.56610   0.40419   0.01730   1.000
    F24     F    0.08314   0.90552   0.49284   1.000
    F25     F    0.07225   0.41538   0.51372   1.000
    F26     F    0.09917   0.41460   0.00363   1.000
loop_
    _geom_bond_atom_site_label_1
    _geom_bond_atom_site_label_2
    _geom_bond_distance
    _geom_bond_site_symmetry_2
    _ccdc_geom_bond_type
    Ga1    F26       2.01256      .   S
    Ga1    F17       1.93148  1_454   S
    F23    Ga9       1.91939      .   S
    F20    Ga12      1.89615  1_545   S
    F18    Ga8       1.88474  1_545   S
    Ga10   F22       1.88554      .   S
    Ga14   F25       1.90466      .   S
    F16    Ga0       1.92480      .   S
    Ga4    F19       1.88043      .   S
    Ga4    F21       1.92953      .   S
    F24    Ga0       1.87411  1_455   S
