# CIF file generated by openbabel 2.4.90, see http://openbabel.sf.net
data_I
_chemical_name_common ''
_cell_length_a 10.563
_cell_length_b 11.365
_cell_length_c 16.816
_cell_angle_alpha 98.438
_cell_angle_beta 95.506
_cell_angle_gamma 101.269
_space_group_name_H-M_alt 'P 1'
_space_group_name_Hall 'P 1'
loop_
    _symmetry_equiv_pos_as_xyz
    x,y,z
loop_
    _atom_site_label
    _atom_site_type_symbol
    _atom_site_fract_x
    _atom_site_fract_y
    _atom_site_fract_z
    _atom_site_occupancy
    Ga0     Ga   0.97842   0.75879   0.50725   1.000
    Ga1     Ga   0.03536   0.23482   0.00000   1.000
    Ga2     Ga   0.99921   0.23615   0.49939   1.000
    Ga3     Ga   0.53413   0.73537   0.98075   1.000
    Ga4     Ga   0.51635   0.71959   0.49185   1.000
    Ga5     Ga   0.46258   0.23978   0.01387   1.000
    Ga6     Ga   0.49779   0.23923   0.49747   1.000
    Ga7     Ga   0.74622   0.02481   0.97872   1.000
    Ga8     Ga   0.76067   0.96167   0.51279   1.000
    Ga9     Ga   0.75109   0.45047   0.01840   1.000
    Ga10    Ga   0.73357   0.51483   0.48410   1.000
    Ga11    Ga   0.25146   0.95484   0.02366   1.000
    Ga12    Ga   0.27806   0.95462   0.51149   1.000
    Ga13    Ga   0.24779   0.52059   0.97503   1.000
    Ga14    Ga   0.21977   0.52016   0.48648   1.000
    Ga15    Ga   0.96304   0.74046   0.01736   1.000
    F16     F    0.92228   0.58427   0.48650   1.000
    F17     F    0.93275   0.07046   0.97929   1.000
    F18     F    0.91116   0.05473   0.48284   1.000
    F19     F    0.41622   0.57038   0.50696   1.000
    F20     F    0.42270   0.05990   0.48279   1.000
    F21     F    0.57168   0.89458   0.51030   1.000
    F22     F    0.58356   0.42033   0.51370   1.000
    F23     F    0.56610   0.40419   0.01730   1.000
    F24     F    0.08314   0.90552   0.49284   1.000
    F25     F    0.07225   0.41538   0.51372   1.000
    F26     F    0.09917   0.41460   0.00363   1.000
    Ts27    Ts   0.93020   0.78089   0.52556   1.000
    Ts28    Ts   0.01377   0.75973   0.53970   1.000
    Ts29    Ts   0.94869   0.75194   0.47100   1.000
    Ts30    Ts   0.05650   0.23493   0.03084   1.000
    Ts31    Ts   0.07740   0.21712   0.97432   1.000
    Ts32    Ts   0.99402   0.24015   0.96621   1.000
    Ts33    Ts   0.95348   0.24940   0.52234   1.000
    Ts34    Ts   0.03955   0.23384   0.53077   1.000
    Ts35    Ts   0.04412   0.22271   0.47663   1.000
    Ts36    Ts   0.95876   0.23877   0.46762   1.000
    Ts37    Ts   0.55411   0.73299   0.01723   1.000
    Ts38    Ts   0.57688   0.71889   0.96075   1.000
    Ts39    Ts   0.49292   0.74351   0.95352   1.000
    Ts40    Ts   0.54647   0.72748   0.52808   1.000
    Ts41    Ts   0.56488   0.69719   0.47332   1.000
    Ts42    Ts   0.48136   0.71680   0.45895   1.000
    Ts43    Ts   0.42085   0.25793   0.03394   1.000
    Ts44    Ts   0.50406   0.23458   0.04196   1.000
    Ts45    Ts   0.44169   0.23981   0.97732   1.000
    Ts46    Ts   0.45260   0.25259   0.52003   1.000
    Ts47    Ts   0.53813   0.23703   0.52936   1.000
    Ts48    Ts   0.54350   0.22592   0.47467   1.000
    Ts49    Ts   0.45746   0.24108   0.46598   1.000
    Ts50    Ts   0.75510   0.05324   0.01529   1.000
    Ts51    Ts   0.72530   0.06372   0.96056   1.000
    Ts52    Ts   0.74757   0.98313   0.94893   1.000
    Ts53    Ts   0.78504   0.91614   0.52925   1.000
    Ts54    Ts   0.75892   0.99773   0.54350   1.000
    Ts55    Ts   0.74655   0.93076   0.47660   1.000
    Ts56    Ts   0.77238   0.41171   0.03658   1.000
    Ts57    Ts   0.74904   0.49219   0.04812   1.000
    Ts58    Ts   0.74282   0.42218   0.98181   1.000
    Ts59    Ts   0.74685   0.54570   0.52037   1.000
    Ts60    Ts   0.70970   0.56068   0.46815   1.000
    Ts61    Ts   0.73564   0.47854   0.45350   1.000
    Ts62    Ts   0.27169   0.91469   0.04105   1.000
    Ts63    Ts   0.25086   0.99762   0.05249   1.000
    Ts64    Ts   0.24105   0.92573   0.98703   1.000
    Ts65    Ts   0.29153   0.91250   0.53079   1.000
    Ts66    Ts   0.27241   0.99282   0.54082   1.000
    Ts67    Ts   0.27194   0.92382   0.47549   1.000
    Ts68    Ts   0.25785   0.54964   0.01163   1.000
    Ts69    Ts   0.22705   0.56071   0.95776   1.000
    Ts70    Ts   0.24875   0.47819   0.94602   1.000
    Ts71    Ts   0.22573   0.55068   0.52248   1.000
    Ts72    Ts   0.20573   0.56186   0.46705   1.000
    Ts73    Ts   0.22599   0.48224   0.45730   1.000
    Ts74    Ts   0.92014   0.75689   0.03719   1.000
    Ts75    Ts   0.00424   0.73168   0.04442   1.000
    Ts76    Ts   0.94322   0.74370   0.98102   1.000
loop_
    _geom_bond_atom_site_label_1
    _geom_bond_atom_site_label_2
    _geom_bond_distance
    _geom_bond_site_symmetry_2
    _ccdc_geom_bond_type
    Ga1    F26       2.01256      .   S
    Ga1    F17       1.93148  1_454   S
    F23    Ga9       1.91939      .   S
    F20    Ga12      1.89615  1_545   S
    F18    Ga8       1.88474  1_545   S
    Ga10   F22       1.88554      .   S
    Ga14   F25       1.90466      .   S
    F16    Ga0       1.92480      .   S
    Ga4    F19       1.88043      .   S
    Ga4    F21       1.92953      .   S
    F24    Ga0       1.87411  1_455   S
    Ga0    Ts27      0.68891      .   S
    Ga0    Ts28      0.62839  1_655   S
    Ga0    Ts29      0.64506      .   S
    Ga1    Ts30      0.54437      .   S
    Ga1    Ts31      0.68587  1_554   S
    Ga1    Ts32      0.70007  1_454   S
    Ga2    Ts33      0.67238      .   S
    Ga2    Ts34      0.65262  1_655   S
    Ga2    Ts35      0.66394  1_655   S
    Ga2    Ts36      0.65930      .   S
    Ga3    Ts37      0.63561  1_556   S
    Ga3    Ts38      0.62918      .   S
    Ga3    Ts39      0.63059      .   S
    Ga4    Ts40      0.64512      .   S
    Ga4    Ts41      0.69505      .   S
    Ga4    Ts42      0.62819      .   S
    Ga5    Ts43      0.62794      .   S
    Ga5    Ts44      0.63025      .   S
    Ga5    Ts45      0.63292  1_554   S
    Ga6    Ts46      0.66412      .   S
    Ga6    Ts47      0.65878      .   S
    Ga6    Ts48      0.67086      .   S
    Ga6    Ts49      0.65252      .   S
    Ga7    Ts50      0.64054  1_556   S
    Ga7    Ts51      0.63438      .   S
    Ga7    Ts52      0.64017  1_545   S
    Ga8    Ts53      0.70074      .   S
    Ga8    Ts54      0.61447      .   S
    Ga8    Ts55      0.64450      .   S
    Ga9    Ts56      0.63495      .   S
    Ga9    Ts57      0.64157      .   S
    Ga9    Ts58      0.64047  1_554   S
    Ga10   Ts59      0.64520      .   S
    Ga10   Ts60      0.69749      .   S
    Ga10   Ts61      0.61540      .   S
    Ga11   Ts62      0.63618      .   S
    Ga11   Ts63      0.63569      .   S
    Ga11   Ts64      0.64333  1_554   S
    Ga12   Ts65      0.64662      .   S
    Ga12   Ts66      0.62317      .   S
    Ga12   Ts67      0.64385      .   S
    Ga13   Ts68      0.64274  1_556   S
    Ga13   Ts69      0.63719      .   S
    Ga13   Ts70      0.63573      .   S
    Ga14   Ts71      0.64286      .   S
    Ga14   Ts72      0.64581      .   S
    Ga14   Ts73      0.62129      .   S
    Ga15   Ts74      0.62860      .   S
    Ga15   Ts75      0.63132  1_655   S
    Ga15   Ts76      0.63547  1_554   S
