# CIF file generated by openbabel 2.4.90, see http://openbabel.sf.net
data_I
_chemical_name_common ''
_cell_length_a 10.563
_cell_length_b 11.365
_cell_length_c 16.816
_cell_angle_alpha 98.438
_cell_angle_beta 95.506
_cell_angle_gamma 101.269
_space_group_name_H-M_alt 'P 1'
_space_group_name_Hall 'P 1'
loop_
    _symmetry_equiv_pos_as_xyz
    x,y,z
loop_
    _atom_site_label
    _atom_site_type_symbol
    _atom_site_fract_x
    _atom_site_fract_y
    _atom_site_fract_z
    _atom_site_occupancy
    N0      N    0.26811   0.72817   0.38075   1.000
    N1      N    0.23611   0.72811   0.11339   1.000
    O2      O    0.24878   0.73188   0.19414   1.000
    N3      N    0.73553   0.23360   0.11424   1.000
    N4      N    0.73985   0.26515   0.38393   1.000
    O5      O    0.74299   0.24473   0.19528   1.000
    N6      N    0.75051   0.73685   0.61544   1.000
    N7      N    0.76516   0.76613   0.88011   1.000
    O8      O    0.76777   0.74940   0.69399   1.000
    N9      N    0.74445   0.74051   0.38267   1.000
    N10     N    0.73175   0.70972   0.11772   1.000
    O11     O    0.72878   0.72655   0.30407   1.000
    N12     N    0.22797   0.74550   0.61708   1.000
    N13     N    0.26105   0.74673   0.88496   1.000
    O14     O    0.24772   0.74272   0.80411   1.000
    N15     N    0.23750   0.26676   0.38710   1.000
    N16     N    0.23766   0.21804   0.11927   1.000
    O17     O    0.22857   0.24999   0.30648   1.000
    N18     N    0.76283   0.24183   0.88283   1.000
    N19     N    0.75661   0.21085   0.61328   1.000
    O20     O    0.76313   0.22789   0.69411   1.000
    N21     N    0.59993   0.91432   0.00695   1.000
    N22     N    0.26127   0.25820   0.87796   1.000
    N23     N    0.25995   0.20843   0.60996   1.000
    O24     O    0.25839   0.23696   0.79778   1.000
    N25     N    0.40000   0.06021   0.99315   1.000
    N26     N    0.43304   0.57042   0.97216   1.000
    N27     N    0.06660   0.90487   0.02776   1.000
    N28     N    0.89494   0.56308   0.98967   1.000
    Zr29    Zr   0.35038   0.00726   0.49714   1.000
    O30     O    0.30734   0.94629   0.46382   1.000
    O31     O    0.32938   0.93356   0.52603   1.000
    O32     O    0.30786   0.02392   0.53731   1.000
    Zr33    Zr   0.02243   0.23996   0.99430   1.000
    O34     O    0.05267   0.23751   0.03185   1.000
    O35     O    0.98238   0.24338   0.95914   1.000
    O36     O    0.07619   0.21748   0.96826   1.000
    Zr37    Zr   0.96304   0.74046   0.01736   1.000
    O38     O    0.00939   0.73059   0.04780   1.000
    O39     O    0.94074   0.74410   0.97647   1.000
    O40     O    0.91478   0.75894   0.03967   1.000
    Zr41    Zr   0.99921   0.23615   0.49939   1.000
    O42     O    0.04973   0.22103   0.47379   1.000
    O43     O    0.04459   0.23356   0.53469   1.000
    O44     O    0.94776   0.25106   0.52521   1.000
    O45     O    0.95371   0.23910   0.46365   1.000
    Zr46    Zr   0.99461   0.74953   0.49553   1.000
    O47     O    0.02628   0.75522   0.53789   1.000
    O48     O    0.93227   0.77902   0.52199   1.000
    O49     O    0.95307   0.74645   0.46061   1.000
    Zr50    Zr   0.53413   0.73537   0.98075   1.000
    O51     O    0.48777   0.74452   0.95011   1.000
    O52     O    0.55661   0.73269   0.02180   1.000
    O53     O    0.58223   0.71683   0.95825   1.000
    Zr54    Zr   0.83592   0.00820   0.49781   1.000
    O55     O    0.82571   0.93372   0.52382   1.000
    O56     O    0.79633   0.02550   0.53984   1.000
    O57     O    0.78240   0.95016   0.46459   1.000
    Zr58    Zr   0.50142   0.72818   0.50304   1.000
    O59     O    0.54277   0.73276   0.53821   1.000
    O60     O    0.56348   0.69869   0.47660   1.000
    O61     O    0.46952   0.72075   0.46044   1.000
    Zr62    Zr   0.65857   0.46758   0.49890   1.000
    O63     O    0.69839   0.45037   0.45708   1.000
    O64     O    0.66921   0.54279   0.47356   1.000
    O65     O    0.71100   0.52594   0.53230   1.000
    Zr66    Zr   0.65860   0.42733   0.01785   1.000
    O67     O    0.72879   0.39529   0.03858   1.000
    O68     O    0.69554   0.40707   0.97696   1.000
    O69     O    0.70254   0.48583   0.05156   1.000
    Zr70    Zr   0.49779   0.23923   0.49747   1.000
    O71     O    0.44695   0.25425   0.52286   1.000
    O72     O    0.54317   0.23676   0.53334   1.000
    O73     O    0.45242   0.24131   0.46204   1.000
    O74     O    0.54922   0.22426   0.47182   1.000
    Zr75    Zr   0.74622   0.02481   0.97872   1.000
    O76     O    0.72269   0.06858   0.95829   1.000
    O77     O    0.75621   0.05679   0.01987   1.000
    O78     O    0.74774   0.97792   0.94521   1.000
    Zr79    Zr   0.25146   0.95484   0.02366   1.000
    O80     O    0.25078   0.00297   0.05609   1.000
    O81     O    0.23975   0.92209   0.98246   1.000
    O82     O    0.27422   0.90967   0.04322   1.000
    Zr83    Zr   0.46258   0.23978   0.01387   1.000
    O84     O    0.41563   0.26020   0.03645   1.000
    O85     O    0.50925   0.23393   0.04547   1.000
    O86     O    0.43908   0.23981   0.97275   1.000
    Zr87    Zr   0.14601   0.46777   0.50010   1.000
    O88     O    0.18988   0.45130   0.46046   1.000
    O89     O    0.18960   0.52830   0.53379   1.000
    O90     O    0.16710   0.54088   0.47143   1.000
    Zr91    Zr   0.24779   0.52059   0.97503   1.000
    O92     O    0.24887   0.47289   0.94239   1.000
    O93     O    0.25911   0.55327   0.01620   1.000
    O94     O    0.22446   0.56573   0.95560   1.000
loop_
    _geom_bond_atom_site_label_1
    _geom_bond_atom_site_label_2
    _geom_bond_distance
    _geom_bond_site_symmetry_2
    _ccdc_geom_bond_type
    N0     O2        3.13193      .   S
    N1     O2        1.34522      .   S
    N4     O5        3.15061      .   S
    N3     O5        1.34329      .   S
    N7     O8        3.11078      .   S
    N6     O8        1.29865      .   S
    N10    O11       3.11485      .   S
    N9     O11       1.29836      .   S
    N12    O14       3.13717      .   S
    N13    O14       1.34649      .   S
    N16    O17       3.12856      .   S
    N15    O17       1.33265      .   S
    N18    O20       3.15437      .   S
    N19    O20       1.33768      .   S
    N23    O24       3.12911      .   S
    N22    O24       1.33088      .   S
    Zr29   O30       0.84551  1_545   S
    N0     O30       2.59606      .   S
    Zr29   O31       1.02687  1_545   S
    N12    O31       2.90512      .   S
    Zr29   O32       0.86486      .   S
    N23    O32       2.43463      .   S
    Zr33   O34       0.68660  1_556   S
    N16    O34       2.39610      .   S
    Zr33   O35       0.70381  1_455   S
    N18    O35       2.53604      .   S
    Zr33   O36       0.80700      .   S
    N22    O36       2.60079      .   S
    Zr37   O38       0.71023  1_655   S
    N1     O38       2.54589      .   S
    Zr37   O39       0.71491  1_554   S
    N7     O39       2.41912      .   S
    Zr37   O40       0.70717      .   S
    N10    O40       2.46041      .   S
    Zr41   O42       0.74693  1_655   S
    N15    O42       2.58899      .   S
    Zr41   O43       0.73419  1_655   S
    N23    O43       2.58193      .   S
    Zr41   O44       0.75642      .   S
    N19    O44       2.62514      .   S
    Zr41   O45       0.74171      .   S
    N4     O45       2.60470      .   S
    Zr46   O47       0.74557  1_655   S
    N12    O47       2.43196      .   S
    Zr46   O48       0.91792      .   S
    N6     O48       2.61269      .   S
    Zr46   O49       0.69079      .   S
    N9     O49       2.43724      .   S
    Zr50   O51       0.70941      .   S
    N13    O51       2.54243      .   S
    Zr50   O52       0.71506  1_556   S
    N10    O52       2.41508      .   S
    Zr50   O53       0.70783      .   S
    N7     O53       2.46054      .   S
    Zr54   O55       1.00075  1_545   S
    N6     O55       2.92614      .   S
    Zr54   O56       0.87247      .   S
    N19    O56       2.41232      .   S
    Zr54   O57       0.86733  1_545   S
    N9     O57       2.50863      .   S
    Zr58   O59       0.68980      .   S
    N6     O59       2.42894      .   S
    Zr58   O60       0.91541      .   S
    N9     O60       2.61132      .   S
    Zr58   O61       0.74740      .   S
    N0     O61       2.42595      .   S
    Zr62   O63       0.87082      .   S
    N4     O63       2.41656      .   S
    Zr62   O64       1.00170      .   S
    N9     O64       2.92573      .   S
    Zr62   O65       0.86577      .   S
    N6     O65       2.52752      .   S
    Zr66   O67       0.94710      .   S
    N3     O67       2.39178      .   S
    Zr66   O68       0.84743  1_554   S
    N18    O68       2.53038      .   S
    Zr66   O69       0.83494      .   S
    N10    O69       2.56980      .   S
    Zr70   O71       0.74714      .   S
    N23    O71       2.58762      .   S
    Zr70   O72       0.74113      .   S
    N19    O72       2.60206      .   S
    Zr70   O73       0.73408      .   S
    N15    O73       2.57690      .   S
    Zr70   O74       0.75471      .   S
    N4     O74       2.61950      .   S
    Zr75   O76       0.71368      .   S
    N18    O76       2.48546      .   S
    Zr75   O77       0.72061  1_556   S
    N3     O77       2.43024      .   S
    Zr75   O78       0.72019  1_545   S
    N7     O78       2.54249      .   S
    Zr79   O80       0.71515  1_565   S
    N16    O80       2.55356      .   S
    Zr79   O81       0.72374  1_554   S
    N13    O81       2.44904      .   S
    Zr79   O82       0.71570      .   S
    N1     O82       2.50862      .   S
    Zr83   O84       0.70643      .   S
    N16    O84       2.45962      .   S
    Zr83   O85       0.70903      .   S
    N3     O85       2.55435      .   S
    Zr83   O86       0.71204  1_554   S
    N22    O86       2.40589      .   S
    Zr87   O88       0.86639      .   S
    N15    O88       2.43831      .   S
    Zr87   O89       0.84735      .   S
    N12    O89       2.58930      .   S
    Zr87   O90       1.01899      .   S
    N0     O90       2.89337      .   S
    Zr91   O92       0.71520      .   S
    N22    O92       2.55362      .   S
    Zr91   O93       0.72308  1_556   S
    N1     O93       2.44741      .   S
    Zr91   O94       0.71684      .   S
    N13    O94       2.50727      .   S
