# CIF file generated by openbabel 2.4.90, see http://openbabel.sf.net
data_I
_chemical_name_common ''
_cell_length_a 10.563
_cell_length_b 11.365
_cell_length_c 16.816
_cell_angle_alpha 98.438
_cell_angle_beta 95.506
_cell_angle_gamma 101.269
_space_group_name_H-M_alt 'P 1'
_space_group_name_Hall 'P 1'
loop_
    _symmetry_equiv_pos_as_xyz
    x,y,z
loop_
    _atom_site_label
    _atom_site_type_symbol
    _atom_site_fract_x
    _atom_site_fract_y
    _atom_site_fract_z
    _atom_site_occupancy
    Zr0     Zr   0.96304   0.74046   0.01736   1.000
    Zr1     Zr   0.97842   0.75879   0.50725   1.000
    Zr2     Zr   0.03536   0.23482   0.00000   1.000
    Zr3     Zr   0.99921   0.23615   0.49939   1.000
    Zr4     Zr   0.53413   0.73537   0.98075   1.000
    Zr5     Zr   0.51635   0.71959   0.49185   1.000
    Zr6     Zr   0.46258   0.23978   0.01387   1.000
    Zr7     Zr   0.49779   0.23923   0.49747   1.000
    Zr8     Zr   0.74622   0.02481   0.97872   1.000
    Zr9     Zr   0.76067   0.96167   0.51279   1.000
    Zr10    Zr   0.75109   0.45047   0.01840   1.000
    Zr11    Zr   0.73357   0.51483   0.48410   1.000
    Zr12    Zr   0.25146   0.95484   0.02366   1.000
    Zr13    Zr   0.27806   0.95462   0.51149   1.000
    Zr14    Zr   0.24779   0.52059   0.97503   1.000
    Zr15    Zr   0.21977   0.52016   0.48648   1.000
    Zr16    Zr   0.92228   0.58427   0.48650   1.000
    Zr17    Zr   0.93275   0.07046   0.97929   1.000
    Zr18    Zr   0.91116   0.05473   0.48284   1.000
    Zr19    Zr   0.41622   0.57038   0.50696   1.000
    Zr20    Zr   0.42270   0.05990   0.48279   1.000
    Zr21    Zr   0.57168   0.89458   0.51030   1.000
    Zr22    Zr   0.58356   0.42033   0.51370   1.000
    Zr23    Zr   0.56610   0.40419   0.01730   1.000
    Zr24    Zr   0.08314   0.90552   0.49284   1.000
    Zr25    Zr   0.07225   0.41538   0.51372   1.000
    Zr26    Zr   0.09917   0.41460   0.00363   1.000
    O27     O    0.06727   0.32471   0.00181   1.000
    O28     O    0.98405   0.15264   0.98964   1.000
    O29     O    0.65860   0.42733   0.01785   1.000
    O30     O    0.35038   0.00726   0.49714   1.000
    O31     O    0.83592   0.00820   0.49781   1.000
    O32     O    0.65857   0.46758   0.49890   1.000
    O33     O    0.14601   0.46777   0.50010   1.000
    O34     O    0.95035   0.67153   0.49688   1.000
    O35     O    0.46628   0.64498   0.49940   1.000
    O36     O    0.54402   0.80709   0.50107   1.000
    O37     O    0.03078   0.83216   0.50005   1.000
    N38     N    0.26811   0.72817   0.38075   1.000
    N39     N    0.23611   0.72811   0.11339   1.000
    O40     O    0.43762   0.71331   0.41784   1.000
    O41     O    0.26429   0.88531   0.43050   1.000
    O42     O    0.29698   0.86449   0.06279   1.000
    O43     O    0.18819   0.61399   0.44276   1.000
    O44     O    0.27043   0.58596   0.05737   1.000
    O45     O    0.05573   0.72071   0.07824   1.000
    O46     O    0.24878   0.73188   0.19414   1.000
    N47     N    0.73553   0.23360   0.11424   1.000
    N48     N    0.73985   0.26515   0.38393   1.000
    O49     O    0.76620   0.08877   0.06102   1.000
    O50     O    0.90820   0.24206   0.42792   1.000
    O51     O    0.73822   0.43317   0.41526   1.000
    O52     O    0.60064   0.20929   0.44617   1.000
    O53     O    0.79898   0.36325   0.05930   1.000
    O54     O    0.55592   0.22809   0.07707   1.000
    O55     O    0.74299   0.24473   0.19528   1.000
    N56     N    0.75051   0.73685   0.61544   1.000
    N57     N    0.76516   0.76613   0.88011   1.000
    O58     O    0.91844   0.74775   0.93558   1.000
    O59     O    0.86994   0.80851   0.54845   1.000
    O60     O    0.81550   0.85923   0.54983   1.000
    O61     O    0.76344   0.58429   0.56570   1.000
    O62     O    0.63033   0.69829   0.93575   1.000
    O63     O    0.58411   0.73734   0.57338   1.000
    O64     O    0.74926   0.93103   0.91170   1.000
    O65     O    0.76777   0.74940   0.69399   1.000
    N66     N    0.74445   0.74051   0.38267   1.000
    N67     N    0.73175   0.70972   0.11772   1.000
    O68     O    0.74647   0.54433   0.08527   1.000
    O69     O    0.91153   0.74337   0.42568   1.000
    O70     O    0.62555   0.66919   0.45016   1.000
    O71     O    0.67986   0.61800   0.44822   1.000
    O72     O    0.86652   0.77742   0.06197   1.000
    O73     O    0.57909   0.73002   0.06284   1.000
    O74     O    0.72889   0.89213   0.43136   1.000
    O75     O    0.72878   0.72655   0.30407   1.000
    N76     N    0.22797   0.74550   0.61708   1.000
    N77     N    0.26105   0.74673   0.88496   1.000
    O78     O    0.22803   0.88933   0.94125   1.000
    O79     O    0.30837   0.85985   0.55492   1.000
    O80     O    0.44140   0.75367   0.91948   1.000
    O81     O    0.05795   0.76090   0.58026   1.000
    O82     O    0.23319   0.58884   0.56748   1.000
    O83     O    0.20112   0.61086   0.93616   1.000
    O84     O    0.24772   0.74272   0.80411   1.000
    N85     N    0.23750   0.26676   0.38710   1.000
    N86     N    0.23766   0.21804   0.11927   1.000
    O87     O    0.40705   0.24340   0.42662   1.000
    O88     O    0.08292   0.23506   0.06940   1.000
    O89     O    0.36869   0.28061   0.05902   1.000
    O90     O    0.25010   0.05110   0.08852   1.000
    O91     O    0.10025   0.20592   0.44818   1.000
    O92     O    0.23376   0.43484   0.42083   1.000
    O93     O    0.22857   0.24999   0.30648   1.000
    N94     N    0.76283   0.24183   0.88283   1.000
    N95     N    0.75661   0.21085   0.61328   1.000
    O96     O    0.89631   0.26597   0.55102   1.000
    O97     O    0.58856   0.23429   0.56922   1.000
    O98     O    0.94234   0.24681   0.92397   1.000
    O99     O    0.75673   0.04281   0.58188   1.000
    O100    O    0.73248   0.38680   0.93608   1.000
    O101    O    0.69916   0.11236   0.93787   1.000
    O102    O    0.76313   0.22789   0.69411   1.000
    N103    N    0.59993   0.91432   0.00695   1.000
    N104    N    0.26127   0.25820   0.87796   1.000
    N105    N    0.25995   0.20843   0.60996   1.000
    O106    O    0.08996   0.23097   0.56999   1.000
    O107    O    0.39611   0.26928   0.54824   1.000
    O108    O    0.26534   0.04057   0.57749   1.000
    O109    O    0.41557   0.23984   0.93163   1.000
    O110    O    0.24994   0.42519   0.90976   1.000
    O111    O    0.12996   0.19500   0.94222   1.000
    O112    O    0.25839   0.23696   0.79778   1.000
    N113    N    0.40000   0.06021   0.99315   1.000
    N114    N    0.43304   0.57042   0.97216   1.000
    N115    N    0.06660   0.90487   0.02776   1.000
    N116    N    0.89494   0.56308   0.98967   1.000
loop_
    _geom_bond_atom_site_label_1
    _geom_bond_atom_site_label_2
    _geom_bond_distance
    _geom_bond_site_symmetry_2
    _ccdc_geom_bond_type
    Zr2    O27       1.00628      .   S
    Zr26   O27       1.00628      .   S
    Zr2    O28       0.96574  1_454   S
    Zr17   O28       0.96574      .   S
    Zr23   O29       0.95969      .   S
    Zr10   O29       0.95969      .   S
    Zr20   O30       0.94807      .   S
    Zr13   O30       0.94807  1_565   S
    Zr18   O31       0.94237      .   S
    Zr9    O31       0.94237  1_565   S
    Zr11   O32       0.94277      .   S
    Zr22   O32       0.94277      .   S
    Zr15   O33       0.95233      .   S
    Zr25   O33       0.95233      .   S
    Zr16   O34       0.96240      .   S
    Zr1    O34       0.96240      .   S
    Zr5    O35       0.94021      .   S
    Zr19   O35       0.94021      .   S
    Zr5    O36       0.96476      .   S
    Zr21   O36       0.96476      .   S
    Zr24   O37       0.93705      .   S
    Zr1    O37       0.93705  1_655   S
    N38    O40       1.88632      .   S
    Zr5    O40       1.41344      .   S
    N38    O41       1.86748      .   S
    Zr13   O41       1.44867      .   S
    N39    O42       1.90857      .   S
    Zr12   O42       1.43141      .   S
    N38    O43       1.90310      .   S
    Zr15   O43       1.45307      .   S
    N39    O44       1.86452      .   S
    Zr14   O44       1.44616  1_556   S
    N39    O45       1.92192      .   S
    Zr0    O45       1.42047  1_655   S
    N38    O46       3.13193      .   S
    N39    O46       1.34522      .   S
    N47    O49       1.85653      .   S
    Zr8    O49       1.44122  1_556   S
    N48    O50       1.94044      .   S
    Zr3    O50       1.48342      .   S
    N48    O51       1.90881      .   S
    Zr11   O51       1.38464      .   S
    N48    O52       1.94575      .   S
    Zr7    O52       1.50943      .   S
    N47    O53       1.89891      .   S
    Zr10   O53       1.42865      .   S
    N47    O54       1.92573      .   S
    Zr6    O54       1.41806      .   S
    N48    O55       3.15061      .   S
    N47    O55       1.34329      .   S
    N57    O58       1.85337      .   S
    Zr0    O58       1.42982  1_554   S
    N56    O59       1.91427      .   S
    Zr1    O59       1.55005      .   S
    N56    O60       1.96102      .   S
    Zr9    O60       1.57667      .   S
    N56    O61       1.84753      .   S
    Zr11   O61       1.45171      .   S
    N57    O62       1.88056      .   S
    Zr4    O62       1.41566      .   S
    N56    O63       1.83190      .   S
    Zr5    O63       1.45152      .   S
    N57    O64       1.91590      .   S
    Zr8    O64       1.44037  1_545   S
    N57    O65       3.11078      .   S
    N56    O65       1.29865      .   S
    N67    O68       1.91948      .   S
    Zr10   O68       1.44352      .   S
    N66    O69       1.83433      .   S
    Zr1    O69       1.45139      .   S
    N66    O70       1.91512      .   S
    Zr5    O70       1.56386      .   S
    N66    O71       1.96020      .   S
    Zr11   O71       1.56936      .   S
    N67    O72       1.88077      .   S
    Zr0    O72       1.41435      .   S
    N67    O73       1.85134      .   S
    Zr4    O73       1.43011  1_556   S
    N66    O74       1.84100      .   S
    Zr9    O74       1.45013      .   S
    N67    O75       3.11485      .   S
    N66    O75       1.29836      .   S
    N77    O78       1.86509      .   S
    Zr12   O78       1.44748  1_554   S
    N76    O79       1.90797      .   S
    Zr13   O79       1.45490      .   S
    N77    O80       1.92039      .   S
    Zr4    O80       1.41883      .   S
    N76    O81       1.89220      .   S
    Zr1    O81       1.41388  1_655   S
    N76    O82       1.86549      .   S
    Zr15   O82       1.44644      .   S
    N77    O83       1.90765      .   S
    Zr14   O83       1.43369      .   S
    N76    O84       3.13717      .   S
    N77    O84       1.34649      .   S
    N85    O87       1.93110      .   S
    Zr7    O87       1.46816      .   S
    N86    O88       1.82222      .   S
    Zr2    O88       1.22484      .   S
    N86    O89       1.88249      .   S
    Zr6    O89       1.41287      .   S
    N86    O90       1.92526      .   S
    Zr12   O90       1.43031  1_565   S
    N85    O91       1.93313      .   S
    Zr3    O91       1.49386  1_655   S
    N85    O92       1.92033      .   S
    Zr15   O92       1.39791      .   S
    N86    O93       3.12856      .   S
    N85    O93       1.33265      .   S
    N95    O96       1.94785      .   S
    Zr3    O96       1.51285      .   S
    N95    O97       1.93945      .   S
    Zr7    O97       1.48225      .   S
    N94    O98       1.94216      .   S
    Zr2    O98       1.57516  1_454   S
    N95    O99       1.90553      .   S
    Zr9    O99       1.38257  1_565   S
    N94    O100      1.85681      .   S
    Zr10   O100      1.44106  1_554   S
    N94    O101      1.89916      .   S
    Zr8    O101      1.42736      .   S
    N94    O102      3.15437      .   S
    N95    O102      1.33768      .   S
    N105   O106      1.93397      .   S
    Zr3    O106      1.46838  1_655   S
    N105   O107      1.93200      .   S
    Zr7    O107      1.49428      .   S
    N105   O108      1.91923      .   S
    Zr13   O108      1.40213  1_565   S
    N104   O109      1.84940      .   S
    Zr6    O109      1.42407  1_554   S
    N104   O110      1.92495      .   S
    Zr14   O110      1.43040      .   S
    N104   O111      1.93218      .   S
    Zr2    O111      1.54321  1_554   S
    N105   O112      3.12911      .   S
    N104   O112      1.33088      .   S
