# CIF file generated by openbabel 2.4.90, see http://openbabel.sf.net
data_I
_chemical_name_common ''
_cell_length_a 15.37
_cell_length_b 20.104
_cell_length_c 17.697
_cell_angle_alpha 90
_cell_angle_beta 89.987
_cell_angle_gamma 89.999
_space_group_name_H-M_alt 'P 1'
_space_group_name_Hall 'P 1'
loop_
    _symmetry_equiv_pos_as_xyz
    x,y,z
loop_
    _atom_site_label
    _atom_site_type_symbol
    _atom_site_fract_x
    _atom_site_fract_y
    _atom_site_fract_z
    _atom_site_occupancy
    Zn0     Zn   0.23775   0.87501   0.73720   1.000
    Zn1     Zn   0.73775   0.37500   0.73720   1.000
    Zn2     Zn   0.73775   0.87501   0.73720   1.000
    Zn3     Zn   0.01147   0.12500   0.23725   1.000
    Zn4     Zn   0.01147   0.62501   0.23725   1.000
    Zn5     Zn   0.51147   0.12500   0.23725   1.000
    Zn6     Zn   0.51147   0.62501   0.23725   1.000
    Zn7     Zn   0.26224   0.12500   0.26279   1.000
    Zn8     Zn   0.26224   0.62501   0.26279   1.000
    Zn9     Zn   0.76224   0.12500   0.26279   1.000
    Zn10    Zn   0.76224   0.62501   0.26279   1.000
    Zn11    Zn   0.48853   0.37500   0.76273   1.000
    Zn12    Zn   0.48853   0.87501   0.76273   1.000
    Zn13    Zn   0.98853   0.37500   0.76273   1.000
    Zn14    Zn   0.98853   0.87501   0.76273   1.000
    Zn15    Zn   0.31494   0.12500   0.92159   1.000
    Zn16    Zn   0.31494   0.62501   0.92159   1.000
    Zn17    Zn   0.81494   0.12500   0.92159   1.000
    Zn18    Zn   0.81494   0.62501   0.92159   1.000
    Zn19    Zn   0.43619   0.37500   0.42169   1.000
    Zn20    Zn   0.43619   0.87501   0.42169   1.000
    Zn21    Zn   0.93619   0.37500   0.42169   1.000
    Zn22    Zn   0.93619   0.87501   0.42169   1.000
    Zn23    Zn   0.18506   0.37500   0.07840   1.000
    Zn24    Zn   0.18506   0.87501   0.07840   1.000
    Zn25    Zn   0.68506   0.37500   0.07840   1.000
    Zn26    Zn   0.68506   0.87501   0.07840   1.000
    Zn27    Zn   0.06380   0.12500   0.57830   1.000
    Zn28    Zn   0.06381   0.62501   0.57830   1.000
    Zn29    Zn   0.56380   0.12500   0.57830   1.000
    Zn30    Zn   0.56381   0.62501   0.57830   1.000
    H31     H    0.48418   0.01859   0.87178   1.000
    Zn32    Zn   0.23775   0.37500   0.73720   1.000
    H33     H    0.48418   0.51859   0.87178   1.000
    H34     H    0.98418   0.01859   0.87178   1.000
    H35     H    0.98418   0.51859   0.87178   1.000
    H36     H    0.21649   0.02149   0.82352   1.000
    H37     H    0.21649   0.52150   0.82352   1.000
    H38     H    0.71649   0.02149   0.82352   1.000
    H39     H    0.71649   0.52150   0.82352   1.000
    H40     H    0.26628   0.48114   0.37208   1.000
    H41     H    0.26628   0.98115   0.37208   1.000
    H42     H    0.76628   0.48114   0.37208   1.000
    H43     H    0.76629   0.98115   0.37208   1.000
    H44     H    0.03395   0.47875   0.32351   1.000
    H45     H    0.03395   0.97875   0.32351   1.000
    H46     H    0.53395   0.47875   0.32351   1.000
    H47     H    0.53396   0.97875   0.32351   1.000
    H48     H    0.01581   0.26859   0.12821   1.000
    H49     H    0.01581   0.76860   0.12821   1.000
    H50     H    0.51581   0.26859   0.12821   1.000
    H51     H    0.51581   0.76860   0.12821   1.000
    H52     H    0.28350   0.27150   0.17647   1.000
    H53     H    0.28350   0.77150   0.17647   1.000
    H54     H    0.78350   0.27150   0.17647   1.000
    H55     H    0.78350   0.77150   0.17647   1.000
    H56     H    0.23371   0.23114   0.62791   1.000
    H57     H    0.23371   0.73114   0.62791   1.000
    H58     H    0.73371   0.23114   0.62791   1.000
    H59     H    0.73371   0.73114   0.62791   1.000
    H60     H    0.46604   0.22874   0.67649   1.000
    H61     H    0.46605   0.72875   0.67649   1.000
    H62     H    0.96605   0.22874   0.67649   1.000
    H63     H    0.96605   0.72875   0.67649   1.000
    H64     H    0.01582   0.48142   0.12821   1.000
    H65     H    0.01582   0.98143   0.12821   1.000
    H66     H    0.51582   0.48142   0.12821   1.000
    H67     H    0.51582   0.98143   0.12821   1.000
    H68     H    0.28351   0.47851   0.17640   1.000
    H69     H    0.28351   0.97852   0.17640   1.000
    H70     H    0.78351   0.47851   0.17640   1.000
    H71     H    0.78351   0.97852   0.17640   1.000
    H72     H    0.23371   0.01886   0.62791   1.000
    H73     H    0.23371   0.51887   0.62791   1.000
    H74     H    0.73371   0.01886   0.62791   1.000
    H75     H    0.73371   0.51887   0.62791   1.000
    H76     H    0.46604   0.02126   0.67648   1.000
    H77     H    0.46604   0.52127   0.67648   1.000
    H78     H    0.96604   0.02126   0.67648   1.000
    H79     H    0.96604   0.52127   0.67648   1.000
    H80     H    0.48418   0.23142   0.87178   1.000
    H81     H    0.48418   0.73142   0.87178   1.000
    H82     H    0.98418   0.23142   0.87178   1.000
    H83     H    0.98418   0.73142   0.87178   1.000
    H84     H    0.21649   0.22851   0.82352   1.000
    H85     H    0.21649   0.72852   0.82352   1.000
    H86     H    0.71649   0.22851   0.82352   1.000
    H87     H    0.71649   0.72852   0.82352   1.000
    H88     H    0.26628   0.26887   0.37208   1.000
    H89     H    0.26628   0.76888   0.37208   1.000
    H90     H    0.76628   0.26887   0.37208   1.000
    H91     H    0.76628   0.76888   0.37208   1.000
    H92     H    0.03395   0.27126   0.32350   1.000
    H93     H    0.03395   0.77127   0.32350   1.000
    H94     H    0.53395   0.27126   0.32350   1.000
    H95     H    0.53395   0.77127   0.32350   1.000
    H96     H    0.27005   0.37501   0.92237   1.000
    H97     H    0.27005   0.87501   0.92237   1.000
    H98     H    0.77005   0.37501   0.92237   1.000
    H99     H    0.77005   0.87501   0.92237   1.000
    C100    C    0.56334   0.87501   0.93435   1.000
    C101    C    0.04963   0.12500   0.41320   1.000
    C102    C    0.04963   0.62501   0.41320   1.000
    C103    C    0.54963   0.12500   0.41320   1.000
    H104    H    0.00038   0.37500   0.96230   1.000
    H105    H    0.00038   0.87501   0.96230   1.000
    H106    H    0.50038   0.37500   0.96230   1.000
    H107    H    0.50038   0.87501   0.96230   1.000
    H108    H    0.47984   0.12500   0.42211   1.000
    H109    H    0.47984   0.62501   0.42211   1.000
    H110    H    0.97984   0.12500   0.42211   1.000
    H111    H    0.97985   0.62501   0.42211   1.000
    H112    H    0.24935   0.12500   0.46266   1.000
    H113    H    0.24935   0.62501   0.46266   1.000
    H114    H    0.74935   0.12500   0.46266   1.000
    H115    H    0.74935   0.62501   0.46266   1.000
    H116    H    0.22995   0.12500   0.07762   1.000
    H117    H    0.22995   0.62501   0.07762   1.000
    H118    H    0.72995   0.12500   0.07762   1.000
    H119    H    0.72995   0.62501   0.07762   1.000
    H120    H    0.49962   0.12500   0.03769   1.000
    H121    H    0.49962   0.62501   0.03769   1.000
    H122    H    0.99962   0.12500   0.03769   1.000
    H123    H    0.99962   0.62501   0.03769   1.000
    H124    H    0.02015   0.37500   0.57788   1.000
    H125    H    0.02015   0.87501   0.57788   1.000
    H126    H    0.52015   0.37500   0.57788   1.000
    H127    H    0.52015   0.87501   0.57788   1.000
    H128    H    0.25064   0.37500   0.53733   1.000
    H129    H    0.25064   0.87501   0.53733   1.000
    H130    H    0.75064   0.37500   0.53733   1.000
    H131    H    0.75064   0.87501   0.53733   1.000
    N132    N    0.09567   0.20197   0.19181   1.000
    N133    N    0.09567   0.70197   0.19181   1.000
    N134    N    0.59567   0.20197   0.19181   1.000
    N135    N    0.59567   0.70197   0.19181   1.000
    N136    N    0.06651   0.29691   0.70834   1.000
    C137    C    0.42020   0.00558   0.85041   1.000
    C138    C    0.42020   0.50559   0.85041   1.000
    C139    C    0.92020   0.00558   0.85041   1.000
    C140    C    0.92020   0.50559   0.85041   1.000
    C141    C    0.28442   0.00706   0.82470   1.000
    C142    C    0.28443   0.50706   0.82470   1.000
    C143    C    0.78443   0.00706   0.82470   1.000
    C144    C    0.78443   0.50706   0.82470   1.000
    C145    C    0.33019   0.49424   0.35061   1.000
    C146    C    0.33019   0.99425   0.35061   1.000
    C147    C    0.83019   0.49424   0.35061   1.000
    C148    C    0.83019   0.99425   0.35061   1.000
    C149    C    0.46596   0.49302   0.32483   1.000
    C150    C    0.46596   0.99303   0.32483   1.000
    C151    C    0.96596   0.49302   0.32483   1.000
    C152    C    0.96596   0.99303   0.32483   1.000
    C153    C    0.07979   0.25559   0.14958   1.000
    C154    C    0.07979   0.75559   0.14958   1.000
    C155    C    0.57979   0.25559   0.14958   1.000
    C156    C    0.57979   0.75559   0.14958   1.000
    C157    C    0.21556   0.25706   0.17522   1.000
    C158    C    0.21556   0.75706   0.17522   1.000
    C159    C    0.71556   0.25706   0.17522   1.000
    C160    C    0.71557   0.75706   0.17522   1.000
    C161    C    0.16981   0.24424   0.64938   1.000
    C162    C    0.16981   0.74425   0.64938   1.000
    C163    C    0.66980   0.24424   0.64938   1.000
    C164    C    0.66981   0.74425   0.64938   1.000
    C165    C    0.03404   0.24302   0.67516   1.000
    C166    C    0.03404   0.74303   0.67516   1.000
    C167    C    0.53404   0.24302   0.67516   1.000
    C168    C    0.53404   0.74303   0.67516   1.000
    C169    C    0.07980   0.49443   0.14958   1.000
    C170    C    0.07980   0.99443   0.14958   1.000
    C171    C    0.57980   0.49443   0.14958   1.000
    C172    C    0.57980   0.99443   0.14958   1.000
    C173    C    0.21557   0.49295   0.17522   1.000
    C174    C    0.21557   0.99296   0.17522   1.000
    C175    C    0.71557   0.49295   0.17522   1.000
    C176    C    0.71557   0.99296   0.17522   1.000
    C177    C    0.16980   0.00576   0.64938   1.000
    C178    C    0.16980   0.50577   0.64938   1.000
    C179    C    0.66980   0.00576   0.64938   1.000
    C180    C    0.66980   0.50577   0.64938   1.000
    C181    C    0.03403   0.00698   0.67516   1.000
    C182    C    0.03403   0.50699   0.67516   1.000
    C183    C    0.53403   0.00698   0.67516   1.000
    C184    C    0.53403   0.50699   0.67516   1.000
    C185    C    0.42020   0.24442   0.85041   1.000
    C186    C    0.42020   0.74443   0.85041   1.000
    C187    C    0.92020   0.24442   0.85041   1.000
    C188    C    0.92020   0.74443   0.85041   1.000
    C189    C    0.28443   0.24295   0.82470   1.000
    C190    C    0.28443   0.74296   0.82470   1.000
    C191    C    0.78443   0.24295   0.82470   1.000
    C192    C    0.78443   0.74296   0.82470   1.000
    C193    C    0.33019   0.25577   0.35061   1.000
    C194    C    0.33019   0.75577   0.35061   1.000
    C195    C    0.83019   0.25577   0.35061   1.000
    C196    C    0.83019   0.75577   0.35061   1.000
    C197    C    0.46596   0.25698   0.32483   1.000
    C198    C    0.46596   0.75699   0.32483   1.000
    C199    C    0.96596   0.25698   0.32483   1.000
    C200    C    0.96596   0.75699   0.32483   1.000
    C201    C    0.20030   0.37501   0.91329   1.000
    C202    C    0.20030   0.87501   0.91329   1.000
    C203    C    0.70030   0.37501   0.91329   1.000
    C204    C    0.70030   0.87501   0.91329   1.000
    C205    C    0.06334   0.37500   0.93435   1.000
    C206    C    0.06334   0.87501   0.93435   1.000
    C207    C    0.56334   0.37500   0.93435   1.000
    C208    C    0.54963   0.62501   0.41320   1.000
    C209    C    0.18649   0.12500   0.43456   1.000
    C210    C    0.18649   0.62501   0.43456   1.000
    C211    C    0.68649   0.12500   0.43456   1.000
    C212    C    0.68649   0.62501   0.43456   1.000
    C213    C    0.29970   0.12500   0.08670   1.000
    C214    C    0.29970   0.62501   0.08670   1.000
    C215    C    0.79970   0.12500   0.08670   1.000
    C216    C    0.79970   0.62501   0.08670   1.000
    C217    C    0.43665   0.12500   0.06564   1.000
    C218    C    0.43666   0.62501   0.06564   1.000
    C219    C    0.93665   0.12500   0.06564   1.000
    C220    C    0.93666   0.62501   0.06564   1.000
    C221    C    0.45037   0.37501   0.58679   1.000
    C222    C    0.45037   0.87501   0.58679   1.000
    C223    C    0.95037   0.37501   0.58679   1.000
    C224    C    0.95037   0.87501   0.58679   1.000
    C225    C    0.31351   0.37500   0.56543   1.000
    C226    C    0.31351   0.87501   0.56543   1.000
    C227    C    0.81351   0.37500   0.56543   1.000
    C228    C    0.81351   0.87501   0.56543   1.000
    N229    N    0.31667   0.45309   0.79150   1.000
    N230    N    0.31667   0.95310   0.79150   1.000
    N231    N    0.81667   0.45309   0.79150   1.000
    N232    N    0.81667   0.95310   0.79150   1.000
    N233    N    0.34667   0.04178   0.86247   1.000
    N234    N    0.34667   0.54179   0.86247   1.000
    N235    N    0.84667   0.04178   0.86247   1.000
    N236    N    0.84667   0.54179   0.86247   1.000
    N237    N    0.40432   0.45197   0.80817   1.000
    N238    N    0.40432   0.95198   0.80817   1.000
    N239    N    0.90432   0.45197   0.80817   1.000
    N240    N    0.90432   0.95198   0.80817   1.000
    N241    N    0.43349   0.04690   0.29165   1.000
    N242    N    0.43349   0.54691   0.29165   1.000
    N243    N    0.93349   0.04690   0.29165   1.000
    N244    N    0.93349   0.54691   0.29165   1.000
    N245    N    0.40387   0.45820   0.36261   1.000
    N246    N    0.40387   0.95821   0.36261   1.000
    N247    N    0.90387   0.45820   0.36261   1.000
    N248    N    0.90387   0.95821   0.36261   1.000
    N249    N    0.34587   0.04788   0.30833   1.000
    N250    N    0.34587   0.54789   0.30833   1.000
    N251    N    0.84586   0.04788   0.30833   1.000
    N252    N    0.84587   0.54789   0.30833   1.000
    N253    N    0.18332   0.20309   0.20841   1.000
    N254    N    0.18332   0.70309   0.20841   1.000
    N255    N    0.68332   0.20309   0.20841   1.000
    N256    N    0.68332   0.70309   0.20841   1.000
    N257    N    0.15332   0.29179   0.13752   1.000
    N258    N    0.15332   0.79179   0.13752   1.000
    N259    N    0.65332   0.29179   0.13752   1.000
    N260    N    0.65332   0.79179   0.13752   1.000
    N261    N    0.06651   0.79691   0.70834   1.000
    N262    N    0.56651   0.29691   0.70834   1.000
    N263    N    0.56651   0.79691   0.70834   1.000
    N264    N    0.09613   0.20820   0.63738   1.000
    N265    N    0.09613   0.70820   0.63738   1.000
    N266    N    0.59613   0.20820   0.63738   1.000
    N267    N    0.59613   0.70820   0.63738   1.000
    N268    N    0.15413   0.29788   0.69166   1.000
    N269    N    0.15413   0.79789   0.69166   1.000
    N270    N    0.65413   0.29788   0.69166   1.000
    N271    N    0.65413   0.79789   0.69166   1.000
    N272    N    0.18332   0.04692   0.20841   1.000
    N273    N    0.18333   0.54692   0.20841   1.000
    N274    N    0.68333   0.04692   0.20841   1.000
    N275    N    0.68333   0.54692   0.20841   1.000
    N276    N    0.15332   0.45822   0.13752   1.000
    N277    N    0.15332   0.95823   0.13752   1.000
    N278    N    0.65332   0.45822   0.13752   1.000
    N279    N    0.65332   0.95823   0.13752   1.000
    N280    N    0.09568   0.04804   0.19182   1.000
    N281    N    0.09568   0.54804   0.19182   1.000
    N282    N    0.59568   0.04804   0.19182   1.000
    N283    N    0.59568   0.54804   0.19182   1.000
    N284    N    0.06651   0.45310   0.70834   1.000
    N285    N    0.06651   0.95311   0.70834   1.000
    N286    N    0.56651   0.45310   0.70834   1.000
    N287    N    0.56651   0.95311   0.70834   1.000
    N288    N    0.09612   0.04181   0.63738   1.000
    N289    N    0.09613   0.54181   0.63738   1.000
    N290    N    0.59613   0.04181   0.63738   1.000
    N291    N    0.59613   0.54181   0.63738   1.000
    N292    N    0.15413   0.45213   0.69166   1.000
    N293    N    0.15413   0.95213   0.69166   1.000
    N294    N    0.65413   0.45213   0.69166   1.000
    N295    N    0.65413   0.95213   0.69166   1.000
    N296    N    0.31667   0.29692   0.79157   1.000
    N297    N    0.31667   0.79692   0.79157   1.000
    N298    N    0.81667   0.29692   0.79157   1.000
    N299    N    0.81667   0.79692   0.79157   1.000
    N300    N    0.34668   0.20822   0.86247   1.000
    N301    N    0.34668   0.70823   0.86247   1.000
    N302    N    0.84668   0.20822   0.86247   1.000
    N303    N    0.84668   0.70823   0.86247   1.000
    N304    N    0.40432   0.29804   0.80810   1.000
    N305    N    0.40432   0.79805   0.80817   1.000
    N306    N    0.90432   0.29804   0.80817   1.000
    N307    N    0.90432   0.79805   0.80817   1.000
    N308    N    0.43348   0.20310   0.29165   1.000
    N309    N    0.43348   0.70311   0.29165   1.000
    N310    N    0.93348   0.20310   0.29165   1.000
    N311    N    0.93348   0.70311   0.29165   1.000
    N312    N    0.40387   0.29181   0.36261   1.000
    N313    N    0.40387   0.79182   0.36261   1.000
    N314    N    0.90387   0.29181   0.36261   1.000
    N315    N    0.90387   0.79182   0.36261   1.000
    N316    N    0.34586   0.20212   0.30833   1.000
    N317    N    0.34586   0.70213   0.30833   1.000
    N318    N    0.84586   0.20212   0.30833   1.000
    N319    N    0.84586   0.70213   0.30833   1.000
    N320    N    0.16204   0.37501   0.84600   1.000
    N321    N    0.16204   0.87501   0.84600   1.000
    N322    N    0.66205   0.37501   0.84600   1.000
    N323    N    0.66205   0.87501   0.84600   1.000
    N324    N    0.07365   0.37500   0.85945   1.000
    N325    N    0.07365   0.87501   0.85945   1.000
    N326    N    0.57365   0.37501   0.85945   1.000
    N327    N    0.57365   0.87501   0.85945   1.000
    N328    N    0.14147   0.37501   0.97069   1.000
    N329    N    0.14147   0.87501   0.97069   1.000
    N330    N    0.64147   0.37501   0.97069   1.000
    N331    N    0.64147   0.87501   0.97069   1.000
    N332    N    0.08809   0.12500   0.34599   1.000
    N333    N    0.08809   0.62501   0.34599   1.000
    N334    N    0.58809   0.12500   0.34599   1.000
    N335    N    0.58809   0.62501   0.34599   1.000
    N336    N    0.17646   0.12500   0.35962   1.000
    N337    N    0.17646   0.62501   0.35962   1.000
    N338    N    0.67646   0.12500   0.35962   1.000
    N339    N    0.67646   0.62501   0.35962   1.000
    N340    N    0.10822   0.12500   0.47075   1.000
    N341    N    0.10822   0.62501   0.47075   1.000
    N342    N    0.60822   0.12500   0.47075   1.000
    N343    N    0.60822   0.62501   0.47075   1.000
    N344    N    0.33795   0.12500   0.15399   1.000
    N345    N    0.33795   0.62501   0.15399   1.000
    N346    N    0.83795   0.12500   0.15399   1.000
    N347    N    0.83795   0.62501   0.15399   1.000
    N348    N    0.42634   0.12500   0.14054   1.000
    N349    N    0.42634   0.62501   0.14054   1.000
    N350    N    0.92634   0.12500   0.14054   1.000
    N351    N    0.92634   0.62501   0.14054   1.000
    N352    N    0.35852   0.12500   0.02930   1.000
    N353    N    0.35852   0.62501   0.02930   1.000
    N354    N    0.85852   0.12500   0.02930   1.000
    N355    N    0.85852   0.62501   0.02930   1.000
    N356    N    0.41191   0.37500   0.65400   1.000
    N357    N    0.41191   0.87501   0.65400   1.000
    N358    N    0.91191   0.37500   0.65400   1.000
    N359    N    0.91191   0.87501   0.65400   1.000
    N360    N    0.32353   0.37500   0.64037   1.000
    N361    N    0.32354   0.87501   0.64037   1.000
    N362    N    0.82353   0.37500   0.64037   1.000
    N363    N    0.82354   0.87501   0.64037   1.000
    N364    N    0.39177   0.37500   0.52924   1.000
    N365    N    0.39177   0.87501   0.52924   1.000
    N366    N    0.89178   0.37500   0.52924   1.000
    N367    N    0.89178   0.87501   0.52924   1.000
loop_
    _geom_bond_atom_site_label_1
    _geom_bond_atom_site_label_2
    _geom_bond_distance
    _geom_bond_site_symmetry_2
    _ccdc_geom_bond_type
    N355   C220      1.36236      .   S
    N355   C216      1.35975      .   S
    N355   Zn18      2.02057  1_554   S
    N354   C219      1.36236      .   S
    N354   C215      1.35975      .   S
    N354   Zn17      2.02057  1_554   S
    N353   C218      1.36236      .   S
    N353   C214      1.35975      .   S
    N353   Zn16      2.02058  1_554   S
    N352   C217      1.36236      .   S
    N352   C213      1.35975      .   S
    N352   Zn15      2.02058  1_554   S
    H121   C218      1.08671      .   S
    H120   C217      1.08671      .   S
    H122   C219      1.08672      .   S
    H123   C220      1.08672      .   S
    C218   N349      1.33491      .   S
    C219   N350      1.33491      .   S
    C220   N351      1.33491      .   S
    C217   N348      1.33491      .   S
    H116   C213      1.08410      .   S
    H117   C214      1.08410      .   S
    H118   C215      1.08408      .   S
    H119   C216      1.08410      .   S
    Zn26   N260      2.03257      .   S
    Zn26   N279      2.03257      .   S
    Zn26   N331      2.02058  1_554   S
    Zn25   N278      2.03257      .   S
    Zn25   N259      2.03258      .   S
    Zn25   N330      2.02057  1_554   S
    Zn24   N258      2.03257      .   S
    Zn24   N277      2.03257      .   S
    Zn24   N329      2.02057  1_554   S
    Zn23   N257      2.03259      .   S
    Zn23   N276      2.03257      .   S
    Zn23   N328      2.02058  1_554   S
    C216   N347      1.32818      .   S
    C215   N346      1.32818      .   S
    C214   N345      1.32818      .   S
    C213   N344      1.32818      .   S
    H64    C169      1.08562      .   S
    H65    C170      1.08562      .   S
    H66    C171      1.08562      .   S
    H67    C172      1.08562      .   S
    H51    C156      1.08562      .   S
    H50    C155      1.08562      .   S
    H49    C154      1.08562      .   S
    H48    C153      1.08560      .   S
    N278   C171      1.36094      .   S
    N278   C175      1.35951      .   S
    N260   C156      1.36095      .   S
    N260   C160      1.35951      .   S
    N259   C155      1.36094      .   S
    N259   C159      1.35950      .   S
    N258   C154      1.36095      .   S
    N258   C158      1.35951      .   S
    N257   C153      1.36094      .   S
    N257   C157      1.35950      .   S
    N277   C170      1.36095      .   S
    N277   C174      1.35951      .   S
    N276   C169      1.36094      .   S
    N276   C173      1.35951      .   S
    N279   C172      1.36095      .   S
    N279   C176      1.35951      .   S
    N350   N346      1.37924      .   S
    N350   Zn3       2.15451  1_655   S
    N349   N345      1.37924      .   S
    N349   Zn6       2.15451      .   S
    N351   N347      1.37924      .   S
    N351   Zn4       2.15451  1_655   S
    N348   N344      1.37924      .   S
    N348   Zn5       2.15451      .   S
    C169   N281      1.33429      .   S
    C170   N280      1.33410  1_565   S
    C171   N283      1.33431      .   S
    C172   N282      1.33410  1_565   S
    C153   N132      1.33422      .   S
    C154   N133      1.33421      .   S
    C155   N134      1.33422      .   S
    C156   N135      1.33421      .   S
    N344   Zn7       2.24951      .   S
    N347   Zn10      2.24950      .   S
    N346   Zn9       2.24950      .   S
    N345   Zn8       2.24951      .   S
    C173   H68       1.08403      .   S
    C173   N273      1.32954      .   S
    C174   H69       1.08402      .   S
    C174   N272      1.32935  1_565   S
    C157   H52       1.08405      .   S
    C157   N253      1.32954      .   S
    C175   H70       1.08403      .   S
    C175   N275      1.32954      .   S
    C176   H71       1.08402      .   S
    C176   N274      1.32935  1_565   S
    C158   H53       1.08405      .   S
    C158   N254      1.32954      .   S
    C159   H54       1.08404      .   S
    C159   N255      1.32954      .   S
    C160   H55       1.08404      .   S
    C160   N256      1.32954      .   S
    N132   N253      1.37909      .   S
    N132   Zn3       2.17149      .   S
    N135   N256      1.37909      .   S
    N135   Zn6       2.17152      .   S
    N134   N255      1.37909      .   S
    N134   Zn5       2.17150      .   S
    N133   N254      1.37909      .   S
    N133   Zn4       2.17151      .   S
    N283   N275      1.37907      .   S
    N283   Zn6       2.17145      .   S
    N280   N272      1.37905      .   S
    N280   Zn3       2.17145      .   S
    N282   N274      1.37907      .   S
    N282   Zn5       2.17145      .   S
    N281   N273      1.37907      .   S
    N281   Zn4       2.17144      .   S
    N273   Zn8       2.20511      .   S
    N274   Zn9       2.20511      .   S
    N272   Zn7       2.20511      .   S
    N256   Zn10      2.20510      .   S
    N255   Zn9       2.20510      .   S
    N254   Zn8       2.20510      .   S
    N253   Zn7       2.20510      .   S
    N275   Zn10      2.20511      .   S
    Zn3    N243      2.19730  1_455   S
    Zn3    N310      2.19729  1_455   S
    Zn3    N332      2.25637      .   S
    Zn4    N244      2.19730  1_455   S
    Zn4    N311      2.19729  1_455   S
    Zn4    N333      2.25636      .   S
    Zn5    N241      2.19731      .   S
    Zn5    N308      2.19729      .   S
    Zn5    N334      2.25637      .   S
    Zn6    N242      2.19731      .   S
    Zn6    N309      2.19729      .   S
    Zn6    N335      2.25637      .   S
    Zn7    N316      2.16928      .   S
    Zn7    N249      2.16928      .   S
    Zn7    N336      2.16190      .   S
    Zn8    N317      2.16929      .   S
    Zn8    N250      2.16928      .   S
    Zn8    N337      2.16190      .   S
    Zn9    N251      2.16927      .   S
    Zn9    N318      2.16927      .   S
    Zn9    N338      2.16191      .   S
    Zn10   N252      2.16927      .   S
    Zn10   N319      2.16929      .   S
    Zn10   N339      2.16191      .   S
    N241   N249      1.37878      .   S
    N241   C150      1.32929  1_545   S
    N242   N250      1.37878      .   S
    N242   C149      1.32949      .   S
    N243   N251      1.37880      .   S
    N243   C152      1.32929  1_545   S
    N244   N252      1.37880      .   S
    N244   C151      1.32948      .   S
    N308   N316      1.37878      .   S
    N308   C197      1.32948      .   S
    N309   N317      1.37878      .   S
    N309   C198      1.32948      .   S
    N310   N318      1.37878      .   S
    N310   C199      1.32948      .   S
    N311   N319      1.37878      .   S
    N311   C200      1.32948      .   S
    N251   C148      1.33426  1_545   S
    N252   C147      1.33446      .   S
    N316   C193      1.33447      .   S
    N249   C146      1.33426  1_545   S
    N319   C196      1.33446      .   S
    N318   C195      1.33447      .   S
    N317   C194      1.33446      .   S
    N250   C145      1.33446      .   S
    H95    C198      1.08403      .   S
    H92    C199      1.08400  1_455   S
    H93    C200      1.08400  1_455   S
    H94    C197      1.08403      .   S
    H44    C151      1.08400  1_455   S
    H45    C152      1.08400  1_455   S
    H46    C149      1.08402      .   S
    H47    C150      1.08403      .   S
    C149   N245      1.35929      .   S
    C150   N246      1.35927      .   S
    C151   N247      1.35927      .   S
    C152   N248      1.35926      .   S
    C198   N313      1.35928      .   S
    C199   N314      1.35928      .   S
    C200   N315      1.35929      .   S
    C197   N312      1.35927      .   S
    N335   N339      1.37957      .   S
    N335   C208      1.32809      .   S
    N334   N338      1.37957      .   S
    N334   C103      1.32809      .   S
    N333   N337      1.37958      .   S
    N333   C102      1.32808      .   S
    N332   N336      1.37957      .   S
    N332   C101      1.32809      .   S
    C193   N312      1.36109      .   S
    C193   H88       1.08554      .   S
    C145   N245      1.36109      .   S
    C145   H40       1.08557      .   S
    C146   N246      1.36109      .   S
    C146   H41       1.08557      .   S
    C147   N247      1.36109      .   S
    C147   H42       1.08557      .   S
    C148   N248      1.36109      .   S
    C148   H43       1.08555      .   S
    C194   N313      1.36110      .   S
    C194   H89       1.08555      .   S
    C195   N314      1.36109      .   S
    C195   H90       1.08555      .   S
    C196   N315      1.36110      .   S
    C196   H91       1.08555      .   S
    N336   C209      1.33517      .   S
    N337   C210      1.33517      .   S
    N338   C211      1.33517      .   S
    N339   C212      1.33517      .   S
    N313   Zn20      2.03413      .   S
    N312   Zn19      2.03415      .   S
    N314   Zn21      2.03415      .   S
    N315   Zn22      2.03413      .   S
    N247   Zn21      2.03413      .   S
    N245   Zn19      2.03414      .   S
    N246   Zn20      2.03414      .   S
    N248   Zn22      2.03415      .   S
    C102   H111      1.08409  1_455   S
    C102   N341      1.35964      .   S
    C208   H109      1.08410      .   S
    C208   N343      1.35965      .   S
    C103   H108      1.08410      .   S
    C103   N342      1.35965      .   S
    C101   H110      1.08409  1_455   S
    C101   N340      1.35964      .   S
    Zn22   N367      2.02189      .   S
    Zn19   N364      2.02189      .   S
    Zn20   N365      2.02189      .   S
    Zn21   N366      2.02189      .   S
    C210   H113      1.08677      .   S
    C210   N341      1.36271      .   S
    C211   H114      1.08678      .   S
    C211   N342      1.36270      .   S
    C212   H115      1.08678      .   S
    C212   N343      1.36270      .   S
    C209   H112      1.08677      .   S
    C209   N340      1.36271      .   S
    N343   Zn30      2.02189      .   S
    N342   Zn29      2.02189      .   S
    N341   Zn28      2.02189      .   S
    N340   Zn27      2.02189      .   S
    N364   C225      1.36270      .   S
    N364   C221      1.35965      .   S
    N365   C226      1.36270      .   S
    N365   C222      1.35964      .   S
    N366   C227      1.36271      .   S
    N366   C223      1.35964      .   S
    N367   C228      1.36271      .   S
    N367   C224      1.35964      .   S
    H129   C226      1.08678      .   S
    H128   C225      1.08678      .   S
    H130   C227      1.08677      .   S
    H131   C228      1.08677      .   S
    C228   N363      1.33517      .   S
    C225   N360      1.33517      .   S
    C226   N361      1.33517      .   S
    C227   N362      1.33517      .   S
    H127   C222      1.08412      .   S
    H126   C221      1.08410      .   S
    H125   C224      1.08409  1_455   S
    H124   C223      1.08409  1_455   S
    Zn28   N265      2.03415      .   S
    Zn28   N289      2.03413      .   S
    Zn29   N266      2.03415      .   S
    Zn29   N290      2.03414      .   S
    Zn30   N267      2.03415      .   S
    Zn30   N291      2.03414      .   S
    Zn27   N264      2.03415      .   S
    Zn27   N288      2.03413      .   S
    C223   N358      1.32808      .   S
    C224   N359      1.32808      .   S
    C222   N357      1.32808      .   S
    C221   N356      1.32809      .   S
    H75    C180      1.08557      .   S
    H74    C179      1.08557      .   S
    H73    C178      1.08555      .   S
    H72    C177      1.08555      .   S
    H56    C161      1.08554      .   S
    H59    C164      1.08554      .   S
    H58    C163      1.08554      .   S
    H57    C162      1.08554      .   S
    N264   C161      1.36109      .   S
    N264   C165      1.35928      .   S
    N267   C164      1.36109      .   S
    N267   C168      1.35927      .   S
    N266   C163      1.36109      .   S
    N266   C167      1.35927      .   S
    N265   C162      1.36109      .   S
    N265   C166      1.35928      .   S
    N289   C178      1.36109      .   S
    N289   C182      1.35927      .   S
    N290   C179      1.36108      .   S
    N290   C183      1.35927      .   S
    N291   C180      1.36108      .   S
    N291   C184      1.35929      .   S
    N288   C177      1.36109      .   S
    N288   C181      1.35927      .   S
    N363   N359      1.37958      .   S
    N363   Zn2       2.16190      .   S
    N361   N357      1.37957      .   S
    N361   Zn0       2.16191      .   S
    N362   N358      1.37958      .   S
    N362   Zn1       2.16190      .   S
    N360   N356      1.37957      .   S
    N360   Zn32      2.16191      .   S
    C164   N271      1.33447      .   S
    C163   N270      1.33447      .   S
    C162   N269      1.33447      .   S
    C161   N268      1.33447      .   S
    C180   N294      1.33446      .   S
    C177   N293      1.33426  1_545   S
    C178   N292      1.33446      .   S
    C179   N295      1.33426  1_545   S
    N357   Zn12      2.25622      .   S
    N358   Zn13      2.25622      .   S
    N359   Zn14      2.25621      .   S
    N356   Zn11      2.25622      .   S
    C166   H63       1.08400  1_455   S
    C166   N261      1.32948      .   S
    C183   H76       1.08403      .   S
    C183   N287      1.32929  1_545   S
    C182   H79       1.08400  1_455   S
    C182   N284      1.32948      .   S
    C181   H78       1.08400  1_455   S
    C181   N285      1.32929  1_545   S
    C168   H61       1.08403      .   S
    C168   N263      1.32948      .   S
    C167   H60       1.08403      .   S
    C167   N262      1.32948      .   S
    C165   H62       1.08400  1_455   S
    C165   N136      1.32948      .   S
    C184   H77       1.08402      .   S
    C184   N286      1.32949      .   S
    N269   N261      1.37878      .   S
    N269   Zn0       2.16929      .   S
    N292   N284      1.37879      .   S
    N292   Zn32      2.16928      .   S
    N293   N285      1.37879      .   S
    N293   Zn0       2.16927      .   S
    N271   N263      1.37877      .   S
    N271   Zn2       2.16929      .   S
    N270   N262      1.37878      .   S
    N270   Zn1       2.16927      .   S
    N268   N136      1.37878      .   S
    N268   Zn32      2.16927      .   S
    N294   N286      1.37878      .   S
    N294   Zn1       2.16929      .   S
    N295   N287      1.37878      .   S
    N295   Zn2       2.16928      .   S
    N284   Zn13      2.19722  1_455   S
    N261   Zn14      2.19723  1_455   S
    N287   Zn12      2.19722      .   S
    N286   Zn11      2.19723      .   S
    N285   Zn14      2.19721  1_455   S
    N136   Zn13      2.19721  1_455   S
    N263   Zn12      2.19724      .   S
    N262   Zn11      2.19722      .   S
    Zn0    N230      2.20449      .   S
    Zn0    N297      2.20503      .   S
    Zn0    N321      2.24950      .   S
    Zn32   N229      2.20449      .   S
    Zn32   N296      2.20502      .   S
    Zn32   N320      2.24950      .   S
    Zn1    N231      2.20449      .   S
    Zn1    N298      2.20502      .   S
    Zn1    N322      2.24950      .   S
    Zn2    N232      2.20449      .   S
    Zn2    N299      2.20503      .   S
    Zn2    N323      2.24951      .   S
    Zn11   N304      2.17104      .   S
    Zn11   N237      2.17151      .   S
    Zn11   N326      2.15465      .   S
    Zn12   N305      2.17152      .   S
    Zn12   N238      2.17150      .   S
    Zn12   N327      2.15465      .   S
    Zn13   N239      2.17151      .   S
    Zn13   N306      2.17150      .   S
    Zn13   N324      2.15464  1_655   S
    Zn14   N307      2.17151      .   S
    Zn14   N240      2.17149      .   S
    Zn14   N325      2.15465  1_655   S
    N230   N238      1.37937      .   S
    N230   C141      1.32942  1_565   S
    N229   N237      1.37937      .   S
    N229   C142      1.32962      .   S
    N231   N239      1.37937      .   S
    N231   C144      1.32962      .   S
    N232   N240      1.37937      .   S
    N232   C143      1.32942  1_565   S
    N296   N304      1.37883      .   S
    N296   C189      1.32907      .   S
    N297   N305      1.37909      .   S
    N297   C190      1.32907      .   S
    N298   N306      1.37909      .   S
    N298   C191      1.32907      .   S
    N299   N307      1.37909      .   S
    N299   C192      1.32907      .   S
    N304   C185      1.33502      .   S
    N239   C140      1.33431      .   S
    N307   C188      1.33431      .   S
    N306   C187      1.33432      .   S
    N305   C186      1.33431      .   S
    N240   C139      1.33411  1_565   S
    N238   C137      1.33411  1_565   S
    N237   C138      1.33431      .   S
    H84    C189      1.08401      .   S
    H87    C192      1.08401      .   S
    H86    C191      1.08401      .   S
    H85    C190      1.08401      .   S
    H39    C144      1.08403      .   S
    H38    C143      1.08402      .   S
    H37    C142      1.08403      .   S
    H36    C141      1.08402      .   S
    C190   N301      1.36011      .   S
    C189   N300      1.36011      .   S
    C144   N236      1.36011      .   S
    C143   N235      1.36011      .   S
    C142   N234      1.36011      .   S
    C141   N233      1.36011      .   S
    C191   N302      1.36011      .   S
    C192   N303      1.36011      .   S
    N322   N326      1.37926      .   S
    N322   C203      1.32817      .   S
    N323   N327      1.37924      .   S
    N323   C204      1.32818      .   S
    N321   N325      1.37924      .   S
    N321   C202      1.32818      .   S
    N320   N324      1.37924      .   S
    N320   C201      1.32818      .   S
    C138   N234      1.36094      .   S
    C138   H33       1.08562      .   S
    C139   N235      1.36094      .   S
    C139   H34       1.08562      .   S
    C140   N236      1.36094      .   S
    C140   H35       1.08562      .   S
    C137   N233      1.36094      .   S
    C137   H31       1.08562      .   S
    C185   N300      1.36095      .   S
    C185   H80       1.08560      .   S
    C186   N301      1.36096      .   S
    C186   H81       1.08561      .   S
    C188   N303      1.36095      .   S
    C188   H83       1.08561      .   S
    C187   N302      1.36094      .   S
    C187   H82       1.08562      .   S
    N327   C100      1.33491      .   S
    N326   C207      1.33491      .   S
    N325   C206      1.33491      .   S
    N324   C205      1.33491      .   S
    N302   Zn17      2.03258      .   S
    N301   Zn16      2.03258      .   S
    N300   Zn15      2.03258      .   S
    N236   Zn18      2.03257      .   S
    N235   Zn17      2.03257      .   S
    N234   Zn16      2.03257      .   S
    N233   Zn15      2.03257      .   S
    N303   Zn18      2.03258      .   S
    C203   H98       1.08410      .   S
    C203   N330      1.35974      .   S
    C202   H97       1.08410      .   S
    C202   N329      1.35975      .   S
    C201   H96       1.08410      .   S
    C201   N328      1.35975      .   S
    C204   H99       1.08410      .   S
    C204   N331      1.35975      .   S
    C206   H105      1.08672      .   S
    C206   N329      1.36236      .   S
    C100   H107      1.08671      .   S
    C100   N331      1.36236      .   S
    C207   H106      1.08671      .   S
    C207   N330      1.36238      .   S
    C205   H104      1.08672      .   S
    C205   N328      1.36236      .   S
