# CIF file generated by openbabel 2.4.90, see http://openbabel.sf.net
data_I
_chemical_name_common ''
_cell_length_a 15.37
_cell_length_b 20.104
_cell_length_c 17.697
_cell_angle_alpha 90
_cell_angle_beta 89.987
_cell_angle_gamma 89.999
_space_group_name_H-M_alt 'P 1'
_space_group_name_Hall 'P 1'
loop_
    _symmetry_equiv_pos_as_xyz
    x,y,z
loop_
    _atom_site_label
    _atom_site_type_symbol
    _atom_site_fract_x
    _atom_site_fract_y
    _atom_site_fract_z
    _atom_site_occupancy
    Zr0     Zr   0.23775   0.37500   0.73720   1.000
    Zr1     Zr   0.23775   0.87501   0.73720   1.000
    Zr2     Zr   0.73775   0.37500   0.73720   1.000
    Zr3     Zr   0.73775   0.87501   0.73720   1.000
    Zr4     Zr   0.01147   0.12500   0.23725   1.000
    Zr5     Zr   0.01147   0.62501   0.23725   1.000
    Zr6     Zr   0.51147   0.12500   0.23725   1.000
    Zr7     Zr   0.51147   0.62501   0.23725   1.000
    Zr8     Zr   0.26224   0.12500   0.26279   1.000
    Zr9     Zr   0.26224   0.62501   0.26279   1.000
    Zr10    Zr   0.76224   0.12500   0.26279   1.000
    Zr11    Zr   0.76224   0.62501   0.26279   1.000
    Zr12    Zr   0.48853   0.37500   0.76273   1.000
    Zr13    Zr   0.48853   0.87501   0.76273   1.000
    Zr14    Zr   0.98853   0.37500   0.76273   1.000
    Zr15    Zr   0.98853   0.87501   0.76273   1.000
    Zr16    Zr   0.31494   0.12500   0.92159   1.000
    Zr17    Zr   0.31494   0.62501   0.92159   1.000
    Zr18    Zr   0.81494   0.12500   0.92159   1.000
    Zr19    Zr   0.81494   0.62501   0.92159   1.000
    Zr20    Zr   0.43619   0.37500   0.42169   1.000
    Zr21    Zr   0.43619   0.87501   0.42169   1.000
    Zr22    Zr   0.93619   0.37500   0.42169   1.000
    Zr23    Zr   0.93619   0.87501   0.42169   1.000
    Zr24    Zr   0.18506   0.37500   0.07840   1.000
    Zr25    Zr   0.18506   0.87501   0.07840   1.000
    Zr26    Zr   0.68506   0.37500   0.07840   1.000
    Zr27    Zr   0.68506   0.87501   0.07840   1.000
    Zr28    Zr   0.06380   0.12500   0.57830   1.000
    Zr29    Zr   0.06381   0.62501   0.57830   1.000
    Zr30    Zr   0.56380   0.12500   0.57830   1.000
    Zr31    Zr   0.56381   0.62501   0.57830   1.000
    N32     N    0.36982   0.62501   0.08450   1.000
    O33     O    0.41936   0.62501   0.13670   1.000
    O34     O    0.35328   0.62501   0.02997   1.000
    O35     O    0.33496   0.62501   0.14644   1.000
    N36     N    0.89708   0.74999   0.33337   1.000
    O37     O    0.90856   0.79170   0.36276   1.000
    O38     O    0.85057   0.70678   0.30947   1.000
    O39     O    0.93478   0.70703   0.29891   1.000
    N40     N    0.35328   0.25007   0.83322   1.000
    O41     O    0.39985   0.29329   0.80932   1.000
    O42     O    0.34205   0.20834   0.86263   1.000
    O43     O    0.31525   0.29301   0.79880   1.000
    N44     N    0.60291   0.99999   0.66662   1.000
    O45     O    0.56521   0.95702   0.70108   1.000
    O46     O    0.64942   0.95678   0.69052   1.000
    O47     O    0.59144   0.04170   0.63723   1.000
    N48     N    0.38027   0.37500   0.58443   1.000
    O49     O    0.41524   0.37500   0.64640   1.000
    O50     O    0.39713   0.37500   0.52995   1.000
    O51     O    0.33046   0.37500   0.63661   1.000
    N52     N    0.38027   0.87501   0.58443   1.000
    O53     O    0.33046   0.87501   0.63661   1.000
    O54     O    0.41524   0.87501   0.64640   1.000
    O55     O    0.39713   0.87501   0.52995   1.000
    N56     N    0.88027   0.37500   0.58443   1.000
    O57     O    0.91524   0.37500   0.64640   1.000
    O58     O    0.83046   0.37500   0.63661   1.000
    O59     O    0.89713   0.37500   0.52995   1.000
    N60     N    0.11973   0.62501   0.41556   1.000
    O61     O    0.16954   0.62501   0.36338   1.000
    O62     O    0.08475   0.62501   0.35359   1.000
    O63     O    0.10287   0.62501   0.47004   1.000
    N64     N    0.64671   0.24994   0.16675   1.000
    O65     O    0.60014   0.20671   0.19064   1.000
    O66     O    0.65795   0.29167   0.13735   1.000
    O67     O    0.68475   0.20699   0.20117   1.000
    N68     N    0.60291   0.25002   0.66662   1.000
    O69     O    0.56522   0.29299   0.70108   1.000
    O70     O    0.64943   0.29323   0.69052   1.000
    O71     O    0.59144   0.20831   0.63723   1.000
    N72     N    0.89708   0.24999   0.33337   1.000
    O73     O    0.90856   0.29170   0.36276   1.000
    O74     O    0.93478   0.20702   0.29891   1.000
    O75     O    0.85057   0.20678   0.30947   1.000
    N76     N    0.85328   0.25007   0.83323   1.000
    O77     O    0.81525   0.29301   0.79881   1.000
    O78     O    0.84205   0.20834   0.86263   1.000
    O79     O    0.89985   0.29329   0.80934   1.000
    N80     N    0.85328   0.75007   0.83323   1.000
    O81     O    0.84205   0.70835   0.86263   1.000
    O82     O    0.81525   0.79302   0.79881   1.000
    O83     O    0.89986   0.79330   0.80934   1.000
    N84     N    0.61973   0.62501   0.41556   1.000
    O85     O    0.60287   0.62501   0.47004   1.000
    O86     O    0.58475   0.62501   0.35359   1.000
    O87     O    0.66954   0.62501   0.36338   1.000
    N88     N    0.89709   0.00002   0.33337   1.000
    O89     O    0.85057   0.04323   0.30947   1.000
    O90     O    0.93478   0.04299   0.29891   1.000
    O91     O    0.90856   0.95832   0.36276   1.000
    N92     N    0.63018   0.37501   0.91549   1.000
    O93     O    0.58063   0.37500   0.86329   1.000
    O94     O    0.66504   0.37500   0.85355   1.000
    O95     O    0.64672   0.37500   0.97002   1.000
    N96     N    0.60291   0.49999   0.66662   1.000
    O97     O    0.56521   0.45702   0.70108   1.000
    O98     O    0.59144   0.54170   0.63723   1.000
    O99     O    0.64942   0.45678   0.69052   1.000
    N100    N    0.64672   0.50007   0.16674   1.000
    O101    O    0.68475   0.54302   0.20117   1.000
    O102    O    0.60014   0.54330   0.19064   1.000
    O103    O    0.65795   0.45834   0.13735   1.000
    N104    N    0.39709   0.50002   0.33337   1.000
    O105    O    0.43478   0.54299   0.29891   1.000
    O106    O    0.35057   0.54323   0.30947   1.000
    O107    O    0.40856   0.45831   0.36276   1.000
    N108    N    0.85328   0.49994   0.83322   1.000
    O109    O    0.81524   0.45699   0.79879   1.000
    O110    O    0.89985   0.45671   0.80934   1.000
    O111    O    0.84204   0.54167   0.86263   1.000
    N112    N    0.14672   0.50007   0.16674   1.000
    O113    O    0.10014   0.54330   0.19064   1.000
    O114    O    0.18475   0.54302   0.20117   1.000
    O115    O    0.15795   0.45834   0.13735   1.000
    N116    N    0.35328   0.49994   0.83322   1.000
    O117    O    0.34204   0.54167   0.86263   1.000
    O118    O    0.31524   0.45699   0.79879   1.000
    O119    O    0.39985   0.45671   0.80934   1.000
    N120    N    0.86982   0.62501   0.08450   1.000
    O121    O    0.85328   0.62501   0.02997   1.000
    O122    O    0.83496   0.62501   0.14644   1.000
    O123    O    0.91936   0.62501   0.13670   1.000
    N124    N    0.41550   0.62501   0.57292   1.000
    O125    O    0.45258   0.62501   0.57427   1.000
    N126    N    0.64671   0.74994   0.16675   1.000
    O127    O    0.68475   0.70700   0.20117   1.000
    O128    O    0.60014   0.70672   0.19064   1.000
    O129    O    0.65795   0.79167   0.13735   1.000
    N130    N    0.14671   0.74994   0.16675   1.000
    O131    O    0.18475   0.70700   0.20117   1.000
    O132    O    0.10014   0.70672   0.19064   1.000
    O133    O    0.15795   0.79167   0.13735   1.000
    N134    N    0.39708   0.24999   0.33337   1.000
    O135    O    0.35057   0.20678   0.30947   1.000
    O136    O    0.40856   0.29170   0.36276   1.000
    O137    O    0.43478   0.20702   0.29891   1.000
    N138    N    0.86982   0.12500   0.08450   1.000
    O139    O    0.85327   0.12500   0.02997   1.000
    O140    O    0.83496   0.12500   0.14644   1.000
    O141    O    0.91936   0.12500   0.13670   1.000
    N142    N    0.39709   0.00002   0.33337   1.000
    O143    O    0.40856   0.95832   0.36276   1.000
    O144    O    0.35057   0.04323   0.30947   1.000
    O145    O    0.43478   0.04299   0.29891   1.000
    N146    N    0.39708   0.74999   0.33337   1.000
    O147    O    0.35057   0.70678   0.30947   1.000
    O148    O    0.40856   0.79170   0.36276   1.000
    O149    O    0.43478   0.70703   0.29891   1.000
    N150    N    0.13018   0.37500   0.91549   1.000
    O151    O    0.08063   0.37500   0.86329   1.000
    O152    O    0.14672   0.37500   0.97002   1.000
    O153    O    0.16504   0.37500   0.85355   1.000
    N154    N    0.85328   0.99994   0.83322   1.000
    O155    O    0.81525   0.95700   0.79879   1.000
    O156    O    0.89985   0.95672   0.80934   1.000
    O157    O    0.84204   0.04167   0.86263   1.000
    N158    N    0.63018   0.87501   0.91549   1.000
    O159    O    0.64672   0.87501   0.97002   1.000
    O160    O    0.58063   0.87501   0.86329   1.000
    O161    O    0.66504   0.87501   0.85355   1.000
    N162    N    0.14671   0.24994   0.16675   1.000
    O163    O    0.18475   0.20699   0.20117   1.000
    O164    O    0.10014   0.20671   0.19064   1.000
    O165    O    0.15795   0.29167   0.13735   1.000
    N166    N    0.36982   0.12500   0.08450   1.000
    O167    O    0.41936   0.12500   0.13670   1.000
    O168    O    0.33496   0.12500   0.14644   1.000
    O169    O    0.35327   0.12500   0.02997   1.000
    N170    N    0.35328   0.99994   0.83322   1.000
    O171    O    0.31524   0.95700   0.79879   1.000
    O172    O    0.39985   0.95672   0.80934   1.000
    O173    O    0.34204   0.04167   0.86263   1.000
    N174    N    0.14672   0.00007   0.16674   1.000
    O175    O    0.15795   0.95835   0.13735   1.000
    O176    O    0.18475   0.04302   0.20117   1.000
    O177    O    0.10014   0.04330   0.19064   1.000
    N178    N    0.10291   0.99999   0.66662   1.000
    O179    O    0.09144   0.04170   0.63723   1.000
    O180    O    0.06521   0.95702   0.70108   1.000
    O181    O    0.14942   0.95678   0.69052   1.000
    N182    N    0.10291   0.75002   0.66662   1.000
    O183    O    0.14943   0.79324   0.69052   1.000
    O184    O    0.06522   0.79299   0.70108   1.000
    O185    O    0.09144   0.70832   0.63723   1.000
    N186    N    0.10291   0.49999   0.66662   1.000
    O187    O    0.14942   0.45678   0.69052   1.000
    O188    O    0.06521   0.45702   0.70108   1.000
    O189    O    0.09144   0.54170   0.63723   1.000
    N190    N    0.88027   0.87501   0.58443   1.000
    O191    O    0.83046   0.87501   0.63661   1.000
    O192    O    0.89713   0.87501   0.52995   1.000
    O193    O    0.91524   0.87501   0.64640   1.000
    N194    N    0.10291   0.25002   0.66662   1.000
    O195    O    0.14943   0.29323   0.69052   1.000
    O196    O    0.09144   0.20831   0.63723   1.000
    O197    O    0.06522   0.29299   0.70108   1.000
    N198    N    0.61973   0.12500   0.41556   1.000
    O199    O    0.66954   0.12500   0.36338   1.000
    O200    O    0.58475   0.12500   0.35359   1.000
    O201    O    0.60287   0.12500   0.47004   1.000
    N202    N    0.11973   0.12500   0.41556   1.000
    O203    O    0.10287   0.12500   0.47004   1.000
    O204    O    0.16954   0.12500   0.36338   1.000
    O205    O    0.08475   0.12500   0.35359   1.000
    N206    N    0.64672   0.00007   0.16674   1.000
    O207    O    0.65795   0.95835   0.13735   1.000
    O208    O    0.60014   0.04330   0.19064   1.000
    O209    O    0.68475   0.04302   0.20117   1.000
    N210    N    0.16643   0.12501   0.92698   1.000
    O211    O    0.20356   0.12501   0.92563   1.000
    N212    N    0.13018   0.87501   0.91549   1.000
    O213    O    0.08063   0.87501   0.86329   1.000
    O214    O    0.14672   0.87501   0.97002   1.000
    O215    O    0.16504   0.87501   0.85355   1.000
    N216    N    0.60291   0.75002   0.66662   1.000
    O217    O    0.64943   0.79324   0.69052   1.000
    O218    O    0.56522   0.79299   0.70108   1.000
    O219    O    0.59144   0.70832   0.63723   1.000
    N220    N    0.89709   0.50002   0.33337   1.000
    O221    O    0.85057   0.54323   0.30947   1.000
    O222    O    0.90856   0.45831   0.36276   1.000
    O223    O    0.93478   0.54299   0.29891   1.000
    N224    N    0.35328   0.75007   0.83323   1.000
    O225    O    0.39985   0.79330   0.80934   1.000
    O226    O    0.34205   0.70835   0.86263   1.000
    O227    O    0.31525   0.79302   0.79881   1.000
    N228    N    0.83357   0.87501   0.07301   1.000
    O229    O    0.79644   0.87501   0.07436   1.000
    N230    N    0.66643   0.62501   0.92698   1.000
    O231    O    0.70356   0.62501   0.92563   1.000
    N232    N    0.08450   0.87501   0.42706   1.000
    O233    O    0.04742   0.87501   0.42572   1.000
    N234    N    0.83357   0.37500   0.07301   1.000
    O235    O    0.79644   0.37500   0.07436   1.000
    N236    N    0.58449   0.37500   0.42706   1.000
    O237    O    0.54742   0.37500   0.42572   1.000
    N238    N    0.41550   0.12501   0.57292   1.000
    O239    O    0.45258   0.12501   0.57427   1.000
    N240    N    0.16643   0.62501   0.92698   1.000
    O241    O    0.20356   0.62501   0.92563   1.000
    N242    N    0.08449   0.37500   0.42706   1.000
    O243    O    0.04742   0.37500   0.42572   1.000
    N244    N    0.33356   0.37500   0.07301   1.000
    O245    O    0.29644   0.37500   0.07436   1.000
    N246    N    0.66643   0.12501   0.92698   1.000
    O247    O    0.70356   0.12501   0.92563   1.000
    N248    N    0.33357   0.87501   0.07301   1.000
    O249    O    0.29644   0.87501   0.07436   1.000
    N250    N    0.58450   0.87501   0.42706   1.000
    O251    O    0.54742   0.87501   0.42572   1.000
    N252    N    0.91550   0.12501   0.57292   1.000
    O253    O    0.95258   0.12501   0.57427   1.000
    N254    N    0.91550   0.62501   0.57292   1.000
    O255    O    0.95258   0.62501   0.57427   1.000
loop_
    _geom_bond_atom_site_label_1
    _geom_bond_atom_site_label_2
    _geom_bond_distance
    _geom_bond_site_symmetry_2
    _ccdc_geom_bond_type
    N32    O33       1.19729      .   S
    Zr7    O33       2.27416      .   S
    N32    O34       0.99795      .   S
    Zr17   O34       2.00662  1_556   S
    N32    O35       1.22009      .   S
    Zr9    O35       2.34253      .   S
    N36    O37       1.00237      .   S
    Zr23   O37       2.01820      .   S
    N36    O38       1.20208      .   S
    Zr11   O38       2.28660      .   S
    N36    O39       1.20567      .   S
    Zr5    O39       2.30179  1_455   S
    N40    O41       1.20267      .   S
    Zr12   O41       2.28807      .   S
    N40    O42       1.00217      .   S
    Zr16   O42       2.01725      .   S
    N40    O43       1.20763      .   S
    Zr0    O43       2.30755      .   S
    N44    O45       1.20560      .   S
    Zr13   O45       2.30167      .   S
    N44    O46       1.20202      .   S
    Zr3    O46       2.28653      .   S
    N44    O47       1.00233  1_565   S
    Zr30   O47       2.01816      .   S
    N48    O49       1.22138      .   S
    Zr12   O49       2.34693      .   S
    N48    O50       0.99836      .   S
    Zr20   O50       2.00762      .   S
    N48    O51       1.19935      .   S
    Zr0    O51       2.27992      .   S
    N52    O53       1.19935      .   S
    Zr1    O53       2.27992      .   S
    N52    O54       1.22138      .   S
    Zr13   O54       2.34693      .   S
    N52    O55       0.99836      .   S
    Zr21   O55       2.00762      .   S
    N56    O57       1.22138      .   S
    Zr14   O57       2.34693      .   S
    N56    O58       1.19935      .   S
    Zr2    O58       2.27992      .   S
    N56    O59       0.99836      .   S
    Zr22   O59       2.00762      .   S
    N60    O61       1.19935      .   S
    Zr9    O61       2.27992      .   S
    N60    O62       1.22142      .   S
    Zr5    O62       2.34704      .   S
    N60    O63       0.99836      .   S
    Zr29   O63       2.00762      .   S
    N64    O65       1.20261      .   S
    Zr6    O65       2.28823      .   S
    N64    O66       1.00206      .   S
    Zr26   O66       2.01715      .   S
    N64    O67       1.20771      .   S
    Zr10   O67       2.30766      .   S
    N68    O69       1.20565      .   S
    Zr12   O69       2.30172      .   S
    N68    O70       1.20209      .   S
    Zr2    O70       2.28659      .   S
    N68    O71       1.00237      .   S
    Zr30   O71       2.01821      .   S
    N72    O73       1.00237      .   S
    Zr22   O73       2.01821      .   S
    N72    O74       1.20567      .   S
    Zr4    O74       2.30178  1_455   S
    N72    O75       1.20208      .   S
    Zr10   O75       2.28659      .   S
    N76    O77       1.20767      .   S
    Zr2    O77       2.30759      .   S
    N76    O78       1.00212      .   S
    Zr18   O78       2.01720      .   S
    N76    O79       1.20260      .   S
    Zr14   O79       2.28822      .   S
    N80    O81       1.00212      .   S
    Zr19   O81       2.01721      .   S
    N80    O82       1.20768      .   S
    Zr3    O82       2.30760      .   S
    N80    O83       1.20260      .   S
    Zr15   O83       2.28822      .   S
    N84    O85       0.99836      .   S
    Zr31   O85       2.00762      .   S
    N84    O86       1.22142      .   S
    Zr7    O86       2.34704      .   S
    N84    O87       1.19935      .   S
    Zr11   O87       2.27992      .   S
    N88    O89       1.20202      .   S
    Zr10   O89       2.28653      .   S
    N88    O90       1.20562      .   S
    Zr4    O90       2.30174  1_455   S
    N88    O91       1.00233  1_545   S
    Zr23   O91       2.01817      .   S
    N92    O93       1.19733      .   S
    Zr12   O93       2.27427      .   S
    N92    O94       1.22009      .   S
    Zr2    O94       2.34253      .   S
    N92    O95       0.99795      .   S
    Zr26   O95       2.00661  1_554   S
    N96    O97       1.20567      .   S
    Zr12   O97       2.30175      .   S
    N96    O98       1.00236      .   S
    Zr31   O98       2.01819      .   S
    N96    O99       1.20208      .   S
    Zr2    O99       2.28660      .   S
    N100   O101      1.20776      .   S
    Zr11   O101      2.30772      .   S
    N100   O102      1.20264      .   S
    Zr7    O102      2.28824      .   S
    N100   O103      1.00202      .   S
    Zr26   O103      2.01710      .   S
    N104   O105      1.20569      .   S
    Zr7    O105      2.30181      .   S
    N104   O106      1.20208      .   S
    Zr9    O106      2.28659      .   S
    N104   O107      1.00236      .   S
    Zr20   O107      2.01819      .   S
    N108   O109      1.20780      .   S
    Zr2    O109      2.30742      .   S
    N108   O110      1.20256      .   S
    Zr14   O110      2.28819      .   S
    N108   O111      1.00216      .   S
    Zr19   O111      2.01724      .   S
    N112   O113      1.20264      .   S
    Zr5    O113      2.28823      .   S
    N112   O114      1.20776      .   S
    Zr9    O114      2.30771      .   S
    N112   O115      1.00202      .   S
    Zr24   O115      2.01710      .   S
    N116   O117      1.00216      .   S
    Zr17   O117      2.01724      .   S
    N116   O118      1.20780      .   S
    Zr0    O118      2.30742      .   S
    N116   O119      1.20256      .   S
    Zr12   O119      2.28819      .   S
    N120   O121      0.99794      .   S
    Zr19   O121      2.00661  1_556   S
    N120   O122      1.22009      .   S
    Zr11   O122      2.34252      .   S
    N120   O123      1.19729      .   S
    Zr5    O123      2.27416  1_455   S
    N124   O125      0.57036      .   S
    Zr31   O125      1.71109      .   S
    N126   O127      1.20771      .   S
    Zr11   O127      2.30767      .   S
    N126   O128      1.20261      .   S
    Zr7    O128      2.28823      .   S
    N126   O129      1.00206      .   S
    Zr27   O129      2.01714      .   S
    N130   O131      1.20771      .   S
    Zr9    O131      2.30767      .   S
    N130   O132      1.20260      .   S
    Zr5    O132      2.28823      .   S
    N130   O133      1.00206      .   S
    Zr25   O133      2.01714      .   S
    N134   O135      1.20209      .   S
    Zr8    O135      2.28660      .   S
    N134   O136      1.00237      .   S
    Zr20   O136      2.01821      .   S
    N134   O137      1.20567      .   S
    Zr6    O137      2.30178      .   S
    N138   O139      0.99794      .   S
    Zr18   O139      2.00661  1_556   S
    N138   O140      1.22009      .   S
    Zr10   O140      2.34253      .   S
    N138   O141      1.19729      .   S
    Zr4    O141      2.27416  1_455   S
    N142   O143      1.00234  1_545   S
    Zr21   O143      2.01817      .   S
    N142   O144      1.20203      .   S
    Zr8    O144      2.28654      .   S
    N142   O145      1.20562      .   S
    Zr6    O145      2.30174      .   S
    N146   O147      1.20208      .   S
    Zr9    O147      2.28660      .   S
    N146   O148      1.00237      .   S
    Zr21   O148      2.01820      .   S
    N146   O149      1.20567      .   S
    Zr7    O149      2.30179      .   S
    N150   O151      1.19732      .   S
    Zr14   O151      2.27426  1_655   S
    N150   O152      0.99795      .   S
    Zr24   O152      2.00662  1_554   S
    N150   O153      1.22009      .   S
    Zr0    O153      2.34252      .   S
    N154   O155      1.20773      .   S
    Zr3    O155      2.30734      .   S
    N154   O156      1.20250      .   S
    Zr15   O156      2.28811      .   S
    N154   O157      1.00214  1_565   S
    Zr18   O157      2.01721      .   S
    N158   O159      0.99795      .   S
    Zr27   O159      2.00662  1_554   S
    N158   O160      1.19732      .   S
    Zr13   O160      2.27427      .   S
    N158   O161      1.22009      .   S
    Zr3    O161      2.34253      .   S
    N162   O163      1.20771      .   S
    Zr8    O163      2.30766      .   S
    N162   O164      1.20260      .   S
    Zr4    O164      2.28822      .   S
    N162   O165      1.00206      .   S
    Zr24   O165      2.01715      .   S
    N166   O167      1.19729      .   S
    Zr6    O167      2.27416      .   S
    N166   O168      1.22009      .   S
    Zr8    O168      2.34253      .   S
    N166   O169      0.99795      .   S
    Zr16   O169      2.00662  1_556   S
    N170   O171      1.20773      .   S
    Zr1    O171      2.30734      .   S
    N170   O172      1.20250      .   S
    Zr13   O172      2.28812      .   S
    N170   O173      1.00214  1_565   S
    Zr16   O173      2.01721      .   S
    N174   O175      1.00199  1_545   S
    Zr25   O175      2.01707      .   S
    N174   O176      1.20769      .   S
    Zr8    O176      2.30765      .   S
    N174   O177      1.20258      .   S
    Zr4    O177      2.28818      .   S
    N178   O179      1.00233  1_565   S
    Zr28   O179      2.01816      .   S
    N178   O180      1.20560      .   S
    Zr15   O180      2.30167  1_655   S
    N178   O181      1.20202      .   S
    Zr1    O181      2.28653      .   S
    N182   O183      1.20209      .   S
    Zr1    O183      2.28660      .   S
    N182   O184      1.20565      .   S
    Zr15   O184      2.30173  1_655   S
    N182   O185      1.00237      .   S
    Zr29   O185      2.01821      .   S
    N186   O187      1.20208      .   S
    Zr0    O187      2.28659      .   S
    N186   O188      1.20567      .   S
    Zr14   O188      2.30174  1_655   S
    N186   O189      1.00236      .   S
    Zr29   O189      2.01819      .   S
    N190   O191      1.19935      .   S
    Zr3    O191      2.27992      .   S
    N190   O192      0.99836      .   S
    Zr23   O192      2.00762      .   S
    N190   O193      1.22138      .   S
    Zr15   O193      2.34692      .   S
    N194   O195      1.20208      .   S
    Zr0    O195      2.28659      .   S
    N194   O196      1.00237      .   S
    Zr28   O196      2.01821      .   S
    N194   O197      1.20565      .   S
    Zr14   O197      2.30171  1_655   S
    N198   O199      1.19935      .   S
    Zr10   O199      2.27992      .   S
    N198   O200      1.22142      .   S
    Zr6    O200      2.34704      .   S
    N198   O201      0.99836      .   S
    Zr30   O201      2.00762      .   S
    N202   O203      0.99836      .   S
    Zr28   O203      2.00762      .   S
    N202   O204      1.19935      .   S
    Zr8    O204      2.27992      .   S
    N202   O205      1.22142      .   S
    Zr4    O205      2.34704      .   S
    N206   O207      1.00199  1_545   S
    Zr27   O207      2.01707      .   S
    N206   O208      1.20259      .   S
    Zr6    O208      2.28818      .   S
    N206   O209      1.20769      .   S
    Zr10   O209      2.30765      .   S
    N210   O211      0.57114      .   S
    Zr16   O211      1.71342      .   S
    N212   O213      1.19732      .   S
    Zr15   O213      2.27427  1_655   S
    N212   O214      0.99794      .   S
    Zr25   O214      2.00661  1_554   S
    N212   O215      1.22009      .   S
    Zr1    O215      2.34252      .   S
    N216   O217      1.20209      .   S
    Zr3    O217      2.28661      .   S
    N216   O218      1.20565      .   S
    Zr13   O218      2.30173      .   S
    N216   O219      1.00237      .   S
    Zr31   O219      2.01821      .   S
    N220   O221      1.20208      .   S
    Zr11   O221      2.28659      .   S
    N220   O222      1.00236      .   S
    Zr22   O222      2.01819      .   S
    N220   O223      1.20569      .   S
    Zr5    O223      2.30181  1_455   S
    N224   O225      1.20260      .   S
    Zr13   O225      2.28823      .   S
    N224   O226      1.00212      .   S
    Zr17   O226      2.01721      .   S
    N224   O227      1.20768      .   S
    Zr1    O227      2.30760      .   S
    N228   O229      0.57114      .   S
    Zr27   O229      1.71342      .   S
    N230   O231      0.57114      .   S
    Zr19   O231      1.71343      .   S
    N232   O233      0.57036      .   S
    Zr23   O233      1.71108  1_655   S
    N234   O235      0.57114      .   S
    Zr26   O235      1.71343      .   S
    N236   O237      0.57036      .   S
    Zr20   O237      1.71109      .   S
    N238   O239      0.57036      .   S
    Zr30   O239      1.71109      .   S
    N240   O241      0.57114      .   S
    Zr17   O241      1.71342      .   S
    N242   O243      0.57036      .   S
    Zr22   O243      1.71108  1_655   S
    N244   O245      0.57114      .   S
    Zr24   O245      1.71342      .   S
    N246   O247      0.57114      .   S
    Zr18   O247      1.71343      .   S
    N248   O249      0.57114      .   S
    Zr25   O249      1.71343      .   S
    N250   O251      0.57036      .   S
    Zr21   O251      1.71109      .   S
    N252   O253      0.57036      .   S
    Zr28   O253      1.71108  1_455   S
    N254   O255      0.57036      .   S
    Zr29   O255      1.71108  1_455   S
