# CIF file generated by openbabel 2.4.90, see http://openbabel.sf.net
data_I
_chemical_name_common ''
_cell_length_a 16.019
_cell_length_b 20.377
_cell_length_c 12.161
_cell_angle_alpha 114.729
_cell_angle_beta 98.091
_cell_angle_gamma 89.99
_space_group_name_H-M_alt 'P 1'
_space_group_name_Hall 'P 1'
loop_
    _symmetry_equiv_pos_as_xyz
    x,y,z
loop_
    _atom_site_label
    _atom_site_type_symbol
    _atom_site_fract_x
    _atom_site_fract_y
    _atom_site_fract_z
    _atom_site_occupancy
    Cd0     Cd   0.00001   0.49998   0.50002   1.000
    Cd1     Cd   0.50000   0.99999   0.50002   1.000
    Cd2     Cd   0.50000   0.49998   0.50002   1.000
    Cd3     Cd   0.25000   0.24999   0.50001   1.000
    Cd4     Cd   0.25000   0.74998   0.50001   1.000
    Cd5     Cd   0.75000   0.24999   0.50002   1.000
    Cd6     Cd   0.75000   0.74998   0.50001   1.000
    Cd7     Cd   0.00001   0.99999   0.50002   1.000
    S8      S    0.09803   0.24335   0.35060   1.000
    S9      S    0.09803   0.74335   0.35065   1.000
    S10     S    0.59803   0.24335   0.35065   1.000
    S11     S    0.59803   0.74335   0.35065   1.000
    S12     S    0.15234   0.06716   0.64821   1.000
    S13     S    0.15234   0.56716   0.64822   1.000
    S14     S    0.65233   0.06716   0.64820   1.000
    S15     S    0.65233   0.56716   0.64822   1.000
    S16     S    0.40197   0.25662   0.64938   1.000
    S17     S    0.40197   0.75662   0.64938   1.000
    S18     S    0.90197   0.25662   0.64938   1.000
    S19     S    0.90197   0.75662   0.64938   1.000
    S20     S    0.34767   0.43280   0.35181   1.000
    S21     S    0.34767   0.93280   0.35181   1.000
    S22     S    0.84766   0.43281   0.35181   1.000
    S23     S    0.84766   0.93281   0.35180   1.000
    Ts24    Ts   0.98278   0.50145   0.55932   1.000
    Ts25    Ts   0.01667   0.46217   0.48978   1.000
    Ts26    Ts   0.98334   0.53780   0.51023   1.000
    Ts27    Ts   0.01723   0.49851   0.44072   1.000
    Ts28    Ts   0.51667   0.96217   0.48981   1.000
    Ts29    Ts   0.48278   0.00146   0.55932   1.000
    Ts30    Ts   0.48333   0.03780   0.51023   1.000
    Ts31    Ts   0.51722   0.99852   0.44072   1.000
    Ts32    Ts   0.51667   0.46217   0.48981   1.000
    Ts33    Ts   0.48278   0.50145   0.55932   1.000
    Ts34    Ts   0.48334   0.53780   0.51023   1.000
    Ts35    Ts   0.51722   0.49852   0.44072   1.000
    Ts36    Ts   0.23319   0.21735   0.51027   1.000
    Ts37    Ts   0.26729   0.22182   0.44086   1.000
    Ts38    Ts   0.26681   0.28263   0.48976   1.000
    Ts39    Ts   0.23271   0.27815   0.55917   1.000
    Ts40    Ts   0.23320   0.71734   0.51027   1.000
    Ts41    Ts   0.26728   0.72182   0.44085   1.000
    Ts42    Ts   0.26681   0.78262   0.48976   1.000
    Ts43    Ts   0.23272   0.77815   0.55917   1.000
    Ts44    Ts   0.73319   0.21735   0.51027   1.000
    Ts45    Ts   0.76728   0.22182   0.44086   1.000
    Ts46    Ts   0.76680   0.28263   0.48976   1.000
    Ts47    Ts   0.73271   0.27815   0.55918   1.000
    Ts48    Ts   0.73319   0.71734   0.51027   1.000
    Ts49    Ts   0.76728   0.72182   0.44084   1.000
    Ts50    Ts   0.76681   0.78262   0.48976   1.000
    Ts51    Ts   0.73272   0.77815   0.55917   1.000
    Ts52    Ts   0.01667   0.96217   0.48981   1.000
    Ts53    Ts   0.98278   0.00146   0.55932   1.000
    Ts54    Ts   0.98334   0.03780   0.51023   1.000
    Ts55    Ts   0.01723   0.99852   0.44072   1.000
    Ts56    Ts   0.08887   0.27108   0.37357   1.000
    Ts57    Ts   0.08887   0.77108   0.37361   1.000
    Ts58    Ts   0.58886   0.27108   0.37361   1.000
    Ts59    Ts   0.58886   0.77108   0.37361   1.000
    Ts60    Ts   0.16136   0.08363   0.62552   1.000
    Ts61    Ts   0.16136   0.58363   0.62553   1.000
    Ts62    Ts   0.66135   0.08363   0.62552   1.000
    Ts63    Ts   0.66135   0.58363   0.62553   1.000
    Ts64    Ts   0.41114   0.22889   0.62642   1.000
    Ts65    Ts   0.41114   0.72889   0.62642   1.000
    Ts66    Ts   0.91113   0.22889   0.62642   1.000
    Ts67    Ts   0.91113   0.72889   0.62642   1.000
    Ts68    Ts   0.33865   0.41634   0.37450   1.000
    Ts69    Ts   0.33865   0.91634   0.37450   1.000
    Ts70    Ts   0.85668   0.44177   0.33454   1.000
    Ts71    Ts   0.83864   0.41634   0.37450   1.000
    Ts72    Ts   0.85668   0.94178   0.33453   1.000
    Ts73    Ts   0.83864   0.91634   0.37449   1.000
loop_
    _geom_bond_atom_site_label_1
    _geom_bond_atom_site_label_2
    _geom_bond_distance
    _geom_bond_site_symmetry_2
    _ccdc_geom_bond_type
    S8     Cd3       2.79198      .   S
    S9     Cd4       2.79171      .   S
    S10    Cd5       2.79175      .   S
    S11    Cd6       2.79171      .   S
    S23    Cd7       2.78874  1_655   S
    S22    Cd0       2.78875  1_655   S
    S21    Cd1       2.78845      .   S
    S20    Cd2       2.78850      .   S
    Cd6    S19       2.79173      .   S
    Cd4    S17       2.79174      .   S
    Cd3    S16       2.79177      .   S
    Cd0    S13       2.78849      .   S
    Cd7    S12       2.78847  1_565   S
    Cd1    S14       2.78844  1_565   S
    Cd2    S15       2.78850      .   S
    Cd5    S18       2.79169      .   S
    Cd0    Ts24      0.79689  1_455   S
    Cd0    Ts25      0.78071      .   S
    Cd0    Ts26      0.78082  1_455   S
    Cd0    Ts27      0.79685      .   S
    Cd1    Ts28      0.78082      .   S
    Cd1    Ts29      0.79684  1_565   S
    Cd1    Ts30      0.78078  1_565   S
    Cd1    Ts31      0.79689      .   S
    Cd2    Ts32      0.78078      .   S
    Cd2    Ts33      0.79686      .   S
    Cd2    Ts34      0.78079      .   S
    Cd2    Ts35      0.79688      .   S
    Cd3    Ts36      0.78060      .   S
    Cd3    Ts37      0.79632      .   S
    Cd3    Ts38      0.78057      .   S
    Cd3    Ts39      0.79636      .   S
    Cd4    Ts40      0.78059      .   S
    Cd4    Ts41      0.79633      .   S
    Cd4    Ts42      0.78058      .   S
    Cd4    Ts43      0.79634      .   S
    Cd5    Ts44      0.78057      .   S
    Cd5    Ts45      0.79635      .   S
    Cd5    Ts46      0.78059      .   S
    Cd5    Ts47      0.79634      .   S
    Cd6    Ts48      0.78059      .   S
    Cd6    Ts49      0.79645      .   S
    Cd6    Ts50      0.78057      .   S
    Cd6    Ts51      0.79634      .   S
    Cd7    Ts52      0.78081      .   S
    Cd7    Ts53      0.79688  1_465   S
    Cd7    Ts54      0.78083  1_465   S
    Cd7    Ts55      0.79688      .   S
    S8     Ts56      0.54620      .   S
    S9     Ts57      0.54617      .   S
    S10    Ts58      0.54617      .   S
    S11    Ts59      0.54617      .   S
    S12    Ts60      0.54615      .   S
    S13    Ts61      0.54617      .   S
    S14    Ts62      0.54611      .   S
    S15    Ts63      0.54616      .   S
    S16    Ts64      0.54617      .   S
    S17    Ts65      0.54618      .   S
    S18    Ts66      0.54618      .   S
    S19    Ts67      0.54618      .   S
    S20    Ts68      0.54616      .   S
    S21    Ts69      0.54618      .   S
    S22    Ts70      0.37290      .   S
    S22    Ts71      0.54616      .   S
    S23    Ts72      0.37287      .   S
    S23    Ts73      0.54621      .   S
