# CIF file generated by openbabel 2.4.90, see http://openbabel.sf.net
data_I
_chemical_name_common ''
_cell_length_a 16.019
_cell_length_b 20.377
_cell_length_c 12.161
_cell_angle_alpha 114.729
_cell_angle_beta 98.091
_cell_angle_gamma 89.99
_space_group_name_H-M_alt 'P 1'
_space_group_name_Hall 'P 1'
loop_
    _symmetry_equiv_pos_as_xyz
    x,y,z
loop_
    _atom_site_label
    _atom_site_type_symbol
    _atom_site_fract_x
    _atom_site_fract_y
    _atom_site_fract_z
    _atom_site_occupancy
    Cd0     Cd   0.00001   0.49998   0.50002   1.000
    Cd1     Cd   0.50000   0.99999   0.50002   1.000
    Cd2     Cd   0.50000   0.49998   0.50002   1.000
    Cd3     Cd   0.25000   0.24999   0.50001   1.000
    Cd4     Cd   0.25000   0.74998   0.50001   1.000
    Cd5     Cd   0.75000   0.24999   0.50002   1.000
    Cd6     Cd   0.75000   0.74998   0.50001   1.000
    Cd7     Cd   0.00001   0.99999   0.50002   1.000
    S8      S    0.09803   0.24335   0.35060   1.000
    S9      S    0.09803   0.74335   0.35065   1.000
    S10     S    0.59803   0.24335   0.35065   1.000
    S11     S    0.59803   0.74335   0.35065   1.000
    S12     S    0.15234   0.06716   0.64821   1.000
    S13     S    0.15234   0.56716   0.64822   1.000
    S14     S    0.65233   0.06716   0.64820   1.000
    S15     S    0.65233   0.56716   0.64822   1.000
    S16     S    0.40197   0.25662   0.64938   1.000
    S17     S    0.40197   0.75662   0.64938   1.000
    S18     S    0.90197   0.25662   0.64938   1.000
    S19     S    0.90197   0.75662   0.64938   1.000
    S20     S    0.34767   0.43280   0.35181   1.000
    S21     S    0.34767   0.93280   0.35181   1.000
    S22     S    0.84766   0.43281   0.35181   1.000
    S23     S    0.84766   0.93281   0.35180   1.000
loop_
    _geom_bond_atom_site_label_1
    _geom_bond_atom_site_label_2
    _geom_bond_distance
    _geom_bond_site_symmetry_2
    _ccdc_geom_bond_type
    S8     Cd3       2.79198      .   S
    S9     Cd4       2.79171      .   S
    S10    Cd5       2.79175      .   S
    S11    Cd6       2.79171      .   S
    S23    Cd7       2.78874  1_655   S
    S22    Cd0       2.78875  1_655   S
    S21    Cd1       2.78845      .   S
    S20    Cd2       2.78850      .   S
    Cd6    S19       2.79173      .   S
    Cd4    S17       2.79174      .   S
    Cd3    S16       2.79177      .   S
    Cd0    S13       2.78849      .   S
    Cd7    S12       2.78847  1_565   S
    Cd1    S14       2.78844  1_565   S
    Cd2    S15       2.78850      .   S
    Cd5    S18       2.79169      .   S
