# CIF file generated by openbabel 2.4.90, see http://openbabel.sf.net
data_I
_chemical_name_common ''
_cell_length_a 14.364
_cell_length_b 12.417
_cell_length_c 20.761
_cell_angle_alpha 90
_cell_angle_beta 90
_cell_angle_gamma 90.051
_space_group_name_H-M_alt 'P 1'
_space_group_name_Hall 'P 1'
loop_
    _symmetry_equiv_pos_as_xyz
    x,y,z
loop_
    _atom_site_label
    _atom_site_type_symbol
    _atom_site_fract_x
    _atom_site_fract_y
    _atom_site_fract_z
    _atom_site_occupancy
    H0      H    0.24097   0.24409   0.51214   1.000
    H1      H    0.74136   0.24388   0.51220   1.000
    H2      H    0.31492   0.32505   0.60820   1.000
    H3      H    0.81542   0.32483   0.60830   1.000
    H4      H    0.42534   0.57954   0.49020   1.000
    H5      H    0.92547   0.57950   0.49030   1.000
    H6      H    0.35563   0.49530   0.39365   1.000
    H7      H    0.85573   0.49523   0.39376   1.000
    H8      H    0.18679   0.26247   0.40389   1.000
    H9      H    0.68700   0.26232   0.40400   1.000
    H10     H    0.28628   0.27870   0.35466   1.000
    H11     H    0.78649   0.27843   0.35481   1.000
    H12     H    0.05639   0.53234   0.35033   1.000
    H13     H    0.55676   0.53226   0.35041   1.000
    H14     H    0.04315   0.41578   0.39818   1.000
    H15     H    0.54342   0.41573   0.39820   1.000
    H16     H    0.00886   0.74413   0.48785   1.000
    H17     H    0.50874   0.74409   0.48763   1.000
    H18     H    0.43461   0.82499   0.39166   1.000
    H19     H    0.93465   0.82487   0.39186   1.000
    H20     H    0.32462   0.07928   0.50976   1.000
    H21     H    0.82453   0.07920   0.50987   1.000
    H22     H    0.39443   0.99504   0.60629   1.000
    H23     H    0.89441   0.99511   0.60642   1.000
    H24     H    0.06316   0.76256   0.59609   1.000
    H25     H    0.56312   0.76246   0.59587   1.000
    H26     H    0.46364   0.77837   0.64513   1.000
    H27     H    0.96374   0.77874   0.64539   1.000
    H28     H    0.19380   0.03269   0.64933   1.000
    H29     H    0.69357   0.03240   0.64954   1.000
    H30     H    0.20684   0.91612   0.60151   1.000
    H31     H    0.70673   0.91593   0.60165   1.000
    H32     H    0.25860   0.75614   0.01228   1.000
    H33     H    0.75899   0.75593   0.01215   1.000
    H34     H    0.18454   0.67520   0.10831   1.000
    H35     H    0.68505   0.67498   0.10820   1.000
    H36     H    0.07449   0.42052   0.99034   1.000
    H37     H    0.57463   0.42048   0.99020   1.000
    H38     H    0.14424   0.50479   0.89375   1.000
    H39     H    0.64434   0.50473   0.89364   1.000
    H40     H    0.31297   0.73771   0.90400   1.000
    H41     H    0.81318   0.73755   0.90388   1.000
    H42     H    0.21348   0.72159   0.85480   1.000
    H43     H    0.71369   0.72132   0.85460   1.000
    H44     H    0.44321   0.46776   0.85040   1.000
    H45     H    0.94358   0.46769   0.85032   1.000
    H46     H    0.45655   0.58429   0.89820   1.000
    H47     H    0.95681   0.58424   0.89817   1.000
    H48     H    0.49123   0.25593   0.98762   1.000
    H49     H    0.99111   0.25589   0.98784   1.000
    H50     H    0.06532   0.17515   0.89185   1.000
    H51     H    0.56536   0.17503   0.89165   1.000
    H52     H    0.17544   0.92083   0.00988   1.000
    H53     H    0.67534   0.92075   0.00977   1.000
    H54     H    0.10556   0.00491   0.10643   1.000
    H55     H    0.60554   0.00498   0.10630   1.000
    H56     H    0.43685   0.23756   0.09588   1.000
    H57     H    0.93680   0.23746   0.09610   1.000
    H58     H    0.03623   0.22129   0.14540   1.000
    H59     H    0.53632   0.22165   0.14514   1.000
    H60     H    0.30639   0.96762   0.14955   1.000
    H61     H    0.80617   0.96733   0.14934   1.000
    H62     H    0.29324   0.08409   0.10166   1.000
    H63     H    0.79313   0.08390   0.10152   1.000
    H64     H    0.25860   0.75614   0.48770   1.000
    H65     H    0.75899   0.75593   0.48783   1.000
    H66     H    0.18454   0.67520   0.39167   1.000
    H67     H    0.68504   0.67498   0.39177   1.000
    H68     H    0.07449   0.42052   0.50960   1.000
    H69     H    0.57463   0.42048   0.50971   1.000
    H70     H    0.14424   0.50479   0.60621   1.000
    H71     H    0.64434   0.50473   0.60632   1.000
    H72     H    0.31297   0.73771   0.59593   1.000
    H73     H    0.81318   0.73755   0.59608   1.000
    H74     H    0.21348   0.72159   0.64516   1.000
    H75     H    0.71369   0.72132   0.64531   1.000
    H76     H    0.44321   0.46777   0.64950   1.000
    H77     H    0.94358   0.46769   0.64964   1.000
    H78     H    0.45655   0.58429   0.60171   1.000
    H79     H    0.95681   0.58424   0.60100   1.000
    H80     H    0.49123   0.25593   0.51234   1.000
    H81     H    0.99111   0.25589   0.51212   1.000
    H82     H    0.06532   0.17515   0.60810   1.000
    H83     H    0.56535   0.17503   0.60831   1.000
    H84     H    0.17544   0.92083   0.49010   1.000
    H85     H    0.67534   0.92075   0.49021   1.000
    H86     H    0.10556   0.00491   0.39355   1.000
    H87     H    0.60554   0.00498   0.39368   1.000
    H88     H    0.43685   0.23756   0.40410   1.000
    H89     H    0.93680   0.23746   0.40388   1.000
    H90     H    0.03623   0.22129   0.35458   1.000
    H91     H    0.53632   0.22165   0.35484   1.000
    C92     C    0.84198   0.01956   0.11443   1.000
    C93     C    0.21551   0.68426   0.49308   1.000
    C94     C    0.71585   0.68409   0.49320   1.000
    C95     C    0.17416   0.63816   0.43880   1.000
    H96     H    0.30639   0.96762   0.35043   1.000
    H97     H    0.80617   0.96733   0.35064   1.000
    H98     H    0.29324   0.08409   0.39832   1.000
    H99     H    0.79313   0.08390   0.39846   1.000
    H100    H    0.24097   0.24409   0.98782   1.000
    H101    H    0.74136   0.24388   0.98769   1.000
    H102    H    0.31492   0.32505   0.89176   1.000
    H103    H    0.81542   0.32483   0.89166   1.000
    H104    H    0.42534   0.57954   0.00970   1.000
    H105    H    0.92548   0.57950   0.00960   1.000
    H106    H    0.35563   0.49530   0.10633   1.000
    H107    H    0.85573   0.49523   0.10622   1.000
    H108    H    0.18679   0.26247   0.09609   1.000
    H109    H    0.68700   0.26232   0.09590   1.000
    H110    H    0.28628   0.27870   0.14532   1.000
    H111    H    0.78649   0.27843   0.14517   1.000
    H112    H    0.05639   0.53233   0.14965   1.000
    H113    H    0.55676   0.53226   0.14957   1.000
    H114    H    0.04315   0.41578   0.10180   1.000
    H115    H    0.54342   0.41573   0.10172   1.000
    H116    H    0.00886   0.74413   0.01213   1.000
    H117    H    0.50873   0.74409   0.01235   1.000
    H118    H    0.43461   0.82499   0.10832   1.000
    H119    H    0.93465   0.82487   0.10810   1.000
    H120    H    0.32462   0.07928   0.99020   1.000
    H121    H    0.82453   0.07920   0.99009   1.000
    H122    H    0.39443   0.99504   0.89367   1.000
    H123    H    0.89441   0.99511   0.89354   1.000
    C124    C    0.40215   0.95685   0.94060   1.000
    C125    C    0.90214   0.95688   0.94050   1.000
    C126    C    0.45742   0.86449   0.94615   1.000
    C127    C    0.95745   0.86456   0.94598   1.000
    C128    C    0.00993   0.82077   0.88886   1.000
    H129    H    0.06316   0.76256   0.90387   1.000
    H130    H    0.56312   0.76246   0.90409   1.000
    H131    H    0.46364   0.77837   0.85483   1.000
    H132    H    0.96374   0.77874   0.85457   1.000
    H133    H    0.19380   0.03269   0.85063   1.000
    H134    H    0.69357   0.03240   0.85042   1.000
    H135    H    0.20684   0.91612   0.89845   1.000
    H136    H    0.70673   0.91593   0.89831   1.000
    C137    C    0.28412   0.31593   0.50677   1.000
    C138    C    0.78446   0.31576   0.50689   1.000
    C139    C    0.32541   0.36203   0.56104   1.000
    C140    C    0.82581   0.36186   0.56110   1.000
    C141    C    0.37445   0.45942   0.55628   1.000
    C142    C    0.87477   0.45929   0.55637   1.000
    C143    C    0.38683   0.50435   0.49498   1.000
    C144    C    0.88702   0.50427   0.49507   1.000
    C145    C    0.34780   0.45706   0.44061   1.000
    C146    C    0.84798   0.45696   0.44071   1.000
    C147    C    0.29246   0.36463   0.44605   1.000
    C148    C    0.79270   0.36448   0.44616   1.000
    C149    C    0.24009   0.32072   0.38890   1.000
    C150    C    0.74031   0.32053   0.38903   1.000
    C151    C    0.09207   0.48019   0.38532   1.000
    C152    C    0.59239   0.48008   0.38540   1.000
    C153    C    0.46563   0.81586   0.49306   1.000
    C154    C    0.96569   0.81588   0.49326   1.000
    C155    C    0.42425   0.86194   0.43885   1.000
    C156    C    0.92427   0.86187   0.43902   1.000
    C157    C    0.37529   0.95927   0.44367   1.000
    C158    C    0.87525   0.95916   0.44381   1.000
    C159    C    0.36307   0.00000   0.50499   1.000
    C160    C    0.86302   0.00000   0.50512   1.000
    C161    C    0.40215   0.95685   0.55932   1.000
    C162    C    0.90214   0.95688   0.55946   1.000
    C163    C    0.45742   0.86449   0.55381   1.000
    C164    C    0.95745   0.86456   0.55398   1.000
    C165    C    0.00993   0.82077   0.61110   1.000
    C166    C    0.50982   0.82057   0.61092   1.000
    C167    C    0.15798   0.98046   0.61440   1.000
    C168    C    0.65784   0.98024   0.61456   1.000
    C169    C    0.21551   0.68426   0.00690   1.000
    C170    C    0.71585   0.68409   0.00678   1.000
    C171    C    0.17416   0.63816   0.06110   1.000
    C172    C    0.67455   0.63799   0.06105   1.000
    C173    C    0.12520   0.54073   0.05638   1.000
    C174    C    0.62552   0.54060   0.05629   1.000
    C175    C    0.11294   0.49575   0.99506   1.000
    C176    C    0.61314   0.49567   0.99497   1.000
    C177    C    0.15199   0.54306   0.94070   1.000
    C178    C    0.65217   0.54296   0.94060   1.000
    C179    C    0.20726   0.63555   0.94615   1.000
    C180    C    0.70751   0.63540   0.94604   1.000
    C181    C    0.25965   0.67949   0.88902   1.000
    C182    C    0.75988   0.67930   0.88800   1.000
    C183    C    0.40758   0.51995   0.88539   1.000
    C184    C    0.90789   0.51984   0.88531   1.000
    C185    C    0.03428   0.18415   0.99325   1.000
    C186    C    0.53433   0.18416   0.99305   1.000
    C187    C    0.07570   0.13816   0.93901   1.000
    C188    C    0.57572   0.13808   0.93884   1.000
    C189    C    0.12471   0.04086   0.94380   1.000
    C190    C    0.62467   0.04075   0.94366   1.000
    C191    C    0.13695   0.99592   0.00513   1.000
    C192    C    0.63690   0.99587   0.00500   1.000
    C193    C    0.09783   0.04314   0.05947   1.000
    C194    C    0.59782   0.04317   0.05930   1.000
    C195    C    0.04252   0.13546   0.05399   1.000
    C196    C    0.54255   0.13554   0.05382   1.000
    C197    C    0.49015   0.17945   0.11093   1.000
    C198    C    0.99004   0.17925   0.11111   1.000
    C199    C    0.34213   0.01978   0.11457   1.000
    C200    C    0.67455   0.63799   0.43893   1.000
    C201    C    0.12520   0.54073   0.44360   1.000
    C202    C    0.62552   0.54060   0.44369   1.000
    C203    C    0.11294   0.49575   0.50490   1.000
    C204    C    0.61314   0.49567   0.50499   1.000
    C205    C    0.15199   0.54306   0.55926   1.000
    C206    C    0.65217   0.54296   0.55936   1.000
    C207    C    0.20726   0.63555   0.55381   1.000
    C208    C    0.70750   0.63540   0.55392   1.000
    C209    C    0.25965   0.67949   0.61090   1.000
    C210    C    0.75987   0.67930   0.61107   1.000
    C211    C    0.40758   0.51995   0.61457   1.000
    C212    C    0.90789   0.51983   0.61465   1.000
    C213    C    0.03428   0.18415   0.50670   1.000
    C214    C    0.53433   0.18416   0.50691   1.000
    C215    C    0.07570   0.13816   0.56095   1.000
    C216    C    0.57572   0.13808   0.56112   1.000
    C217    C    0.12471   0.04086   0.55616   1.000
    C218    C    0.62468   0.04075   0.55630   1.000
    C219    C    0.13695   0.99592   0.49485   1.000
    C220    C    0.63690   0.99587   0.49498   1.000
    C221    C    0.09783   0.04314   0.44051   1.000
    C222    C    0.59782   0.04317   0.44060   1.000
    C223    C    0.04252   0.13546   0.44599   1.000
    C224    C    0.54255   0.13553   0.44616   1.000
    C225    C    0.49015   0.17945   0.38905   1.000
    C226    C    0.99004   0.17925   0.38887   1.000
    C227    C    0.34213   0.01978   0.38541   1.000
    C228    C    0.84198   0.01956   0.38555   1.000
    C229    C    0.28411   0.31593   0.99319   1.000
    C230    C    0.78446   0.31576   0.99300   1.000
    C231    C    0.32541   0.36203   0.93892   1.000
    C232    C    0.82581   0.36186   0.93883   1.000
    C233    C    0.37445   0.45942   0.94368   1.000
    C234    C    0.87477   0.45929   0.94359   1.000
    C235    C    0.38683   0.50435   0.00500   1.000
    C236    C    0.88703   0.50427   0.00491   1.000
    C237    C    0.34780   0.45706   0.05937   1.000
    C238    C    0.84798   0.45696   0.05927   1.000
    C239    C    0.29246   0.36463   0.05393   1.000
    C240    C    0.79271   0.36448   0.05382   1.000
    C241    C    0.24009   0.32072   0.11108   1.000
    C242    C    0.74032   0.32053   0.11095   1.000
    C243    C    0.09207   0.48019   0.11466   1.000
    C244    C    0.59239   0.48008   0.11458   1.000
    C245    C    0.46563   0.81586   0.00692   1.000
    C246    C    0.96569   0.81588   0.00670   1.000
    C247    C    0.42425   0.86194   0.06113   1.000
    C248    C    0.92427   0.86187   0.06096   1.000
    C249    C    0.37529   0.95927   0.05631   1.000
    C250    C    0.87525   0.95916   0.05617   1.000
    C251    C    0.36307   0.00000   0.99497   1.000
    C252    C    0.86302   0.00000   0.99484   1.000
    C253    C    0.50982   0.82057   0.88904   1.000
    C254    C    0.15798   0.98046   0.88554   1.000
    C255    C    0.65784   0.98024   0.88540   1.000
    S256    S    0.18714   0.42272   0.33652   1.000
    S257    S    0.68739   0.42249   0.33660   1.000
    S258    S    0.06306   0.92288   0.66300   1.000
    S259    S    0.56281   0.92256   0.66338   1.000
    S260    S    0.31258   0.57753   0.83659   1.000
    S261    S    0.81283   0.57730   0.83651   1.000
    S262    S    0.43715   0.07746   0.16330   1.000
    S263    S    0.93691   0.07714   0.16340   1.000
    S264    S    0.31258   0.57753   0.66337   1.000
    S265    S    0.81283   0.57730   0.66345   1.000
    S266    S    0.43715   0.07746   0.33600   1.000
    S267    S    0.93691   0.07714   0.33658   1.000
    S268    S    0.18714   0.42272   0.16346   1.000
    S269    S    0.68738   0.42249   0.16338   1.000
    S270    S    0.06306   0.92288   0.83657   1.000
    S271    S    0.56281   0.92256   0.83650   1.000
loop_
    _geom_bond_atom_site_label_1
    _geom_bond_atom_site_label_2
    _geom_bond_distance
    _geom_bond_site_symmetry_2
    _ccdc_geom_bond_type
    C236   H105      1.08909      .   S
    C236   C238      1.39025      .   S
    C236   C234      1.40122  1_554   S
    C235   H104      1.08914      .   S
    C235   C237      1.39019      .   S
    C235   C233      1.40122  1_554   S
    C192   H53       1.08895      .   S
    C192   C194      1.38981  1_565   S
    C192   C190      1.40120  1_564   S
    C191   H52       1.08892      .   S
    C191   C193      1.39023  1_565   S
    C191   C189      1.40131  1_564   S
    C246   H116      1.09176  1_655   S
    C246   C248      1.39632      .   S
    C246   C127      1.40310  1_554   S
    C170   H33       1.09145      .   S
    C170   C172      1.39588      .   S
    C170   C180      1.40358  1_554   S
    C169   H32       1.09140      .   S
    C169   C171      1.39504      .   S
    C169   C179      1.40377  1_554   S
    C245   H117      1.09143      .   S
    C245   C247      1.39572      .   S
    C245   C126      1.40371  1_554   S
    C240   C238      1.40007      .   S
    C240   C242      1.50671      .   S
    C240   C230      1.40508  1_554   S
    C196   C194      1.40003      .   S
    C196   C197      1.50683      .   S
    C196   C186      1.40368  1_554   S
    C239   C237      1.40006      .   S
    C239   C241      1.50668      .   S
    C239   C229      1.40360  1_554   S
    C195   C193      1.40004      .   S
    C195   C198      1.50693  1_455   S
    C195   C185      1.40347  1_554   S
    C250   C248      1.40231      .   S
    C250   C92       1.50152  1_565   S
    C250   C252      1.38183  1_564   S
    C174   C172      1.40233      .   S
    C174   C244      1.50171      .   S
    C174   C176      1.40122  1_554   S
    C249   C247      1.40231      .   S
    C249   C199      1.50170  1_565   S
    C249   C251      1.38150  1_564   S
    C173   C171      1.40223      .   S
    C173   C243      1.50163      .   S
    C173   C175      1.40122  1_554   S
    C238   H107      1.09007      .   S
    C194   H55       1.09060      .   S
    C237   H106      1.09017      .   S
    C193   H54       1.09007      .   S
    C248   H119      1.09142      .   S
    C172   H35       1.09166      .   S
    C171   H34       1.09282      .   S
    C247   H118      1.09207      .   S
    H56    C197      1.09785      .   S
    H109   C242      1.09803      .   S
    H108   C241      1.09786      .   S
    H57    C198      1.09782      .   S
    H63    C92       1.09707      .   S
    H62    C199      1.09712      .   S
    H115   C244      1.09706      .   S
    H114   C243      1.09710      .   S
    C197   H59       1.10376      .   S
    C197   S262      1.83406      .   S
    C242   H111      1.10381      .   S
    C242   S269      1.83510      .   S
    C241   H110      1.10379      .   S
    C241   S268      1.83492      .   S
    C198   H58       1.10402  1_655   S
    C198   S263      1.83487      .   S
    C92    H61       1.10001  1_545   S
    C92    S263      1.84448      .   S
    C199   H60       1.09988  1_545   S
    C199   S262      1.84334      .   S
    C244   H113      1.10005      .   S
    C244   S269      1.84425      .   S
    C243   H112      1.10013      .   S
    C243   S268      1.84441      .   S
    S266   C227      1.85113      .   S
    S266   C225      1.84246      .   S
    S256   C151      1.84442      .   S
    S256   C149      1.83492      .   S
    S267   C228      1.84448      .   S
    S267   C226      1.83487      .   S
    S257   C152      1.84425      .   S
    S257   C150      1.83509      .   S
    H12    C151      1.10012      .   S
    H13    C152      1.10006      .   S
    H96    C227      1.09989  1_565   S
    H97    C228      1.10001  1_565   S
    H90    C226      1.10402  1_455   S
    H10    C149      1.10379      .   S
    H11    C150      1.10382      .   S
    H91    C225      1.10376      .   S
    C151   H14       1.09710      .   S
    C151   C201      1.50163      .   S
    C152   H15       1.09676      .   S
    C152   C202      1.50172      .   S
    C227   H98       1.09712      .   S
    C227   C157      1.50171  1_545   S
    C228   H99       1.09707      .   S
    C228   C158      1.50152  1_545   S
    C226   H89       1.09783      .   S
    C226   C223      1.50693  1_655   S
    C149   H8        1.09787      .   S
    C149   C147      1.50668      .   S
    C150   H9        1.09755      .   S
    C150   C148      1.50671      .   S
    C225   H88       1.09786      .   S
    C225   C224      1.50683      .   S
    H18    C155      1.09208      .   S
    H66    C95       1.09133      .   S
    H67    C200      1.09185      .   S
    H19    C156      1.09179      .   S
    H86    C221      1.09008      .   S
    H6     C145      1.09018      .   S
    H87    C222      1.08912      .   S
    H7     C146      1.09006      .   S
    C95    C201      1.40236      .   S
    C95    C93       1.39637      .   S
    C155   C157      1.40230      .   S
    C155   C153      1.39572      .   S
    C200   C202      1.40232      .   S
    C200   C94       1.39588      .   S
    C156   C158      1.40231      .   S
    C156   C154      1.39598      .   S
    C221   C223      1.40004      .   S
    C221   C219      1.39024  1_545   S
    C222   C224      1.40016      .   S
    C222   C220      1.39115  1_545   S
    C145   C147      1.40006      .   S
    C145   C143      1.39020      .   S
    C146   C148      1.40006      .   S
    C146   C144      1.39025      .   S
    C201   C203      1.40085      .   S
    C157   C159      1.38112  1_565   S
    C202   C204      1.40084      .   S
    C158   C160      1.38144  1_565   S
    C223   C213      1.40291      .   S
    C147   C137      1.40322      .   S
    C224   C214      1.40332      .   S
    C148   C138      1.40341      .   S
    H17    C153      1.09143      .   S
    H64    C93       1.09141      .   S
    H65    C94       1.09144      .   S
    H16    C154      1.09172  1_455   S
    H84    C219      1.08891      .   S
    H4     C143      1.08929      .   S
    H85    C220      1.08895      .   S
    H5     C144      1.08923      .   S
    C153   C163      1.40332      .   S
    C93    C207      1.40340      .   S
    C94    C208      1.40321      .   S
    C154   C164      1.40310      .   S
    C219   C217      1.40093  1_565   S
    C143   C141      1.40085      .   S
    C220   C218      1.40082  1_565   S
    C144   C142      1.40085      .   S
    C203   H68       1.08910      .   S
    C203   C205      1.39025      .   S
    C159   H20       1.13344      .   S
    C159   C161      1.36931  1_545   S
    C204   H69       1.08917      .   S
    C204   C206      1.39020      .   S
    C160   H21       1.13283      .   S
    C160   C162      1.36952  1_545   S
    C213   H81       1.09173  1_455   S
    C213   C215      1.39615      .   S
    C137   H0        1.09145      .   S
    C137   C139      1.39588      .   S
    C138   H1        1.09126      .   S
    C138   C140      1.39520      .   S
    C214   H80       1.09144      .   S
    C214   C216      1.39571      .   S
    C163   C161      1.40007      .   S
    C163   C166      1.50683      .   S
    C207   C205      1.40007      .   S
    C207   C209      1.50606      .   S
    C208   C206      1.40006      .   S
    C208   C210      1.50668      .   S
    C164   C162      1.40004      .   S
    C164   C165      1.50693  1_655   S
    C217   C215      1.40231      .   S
    C217   C167      1.50119  1_545   S
    C141   C139      1.40232      .   S
    C141   C211      1.50171      .   S
    C218   C216      1.40232      .   S
    C218   C168      1.50170  1_545   S
    C142   C140      1.40226      .   S
    C142   C212      1.50162      .   S
    C205   H70       1.09007      .   S
    C161   H22       1.09005      .   S
    C206   H71       1.09017      .   S
    C162   H23       1.09007      .   S
    C215   H82       1.09161      .   S
    C139   H2        1.09185      .   S
    C140   H3        1.09263      .   S
    C216   H83       1.09207      .   S
    H25    C166      1.09785      .   S
    H72    C209      1.09755      .   S
    H73    C210      1.09787      .   S
    H24    C165      1.09782      .   S
    H79    C212      1.10121      .   S
    H30    C167      1.09696      .   S
    H31    C168      1.09712      .   S
    H78    C211      1.09706      .   S
    C209   H74       1.10435      .   S
    C209   S264      1.83559      .   S
    C166   H26       1.10376      .   S
    C166   S259      1.83516      .   S
    C210   H75       1.10379      .   S
    C210   S265      1.83492      .   S
    C165   H27       1.10403  1_455   S
    C165   S258      1.83008      .   S
    C167   H28       1.10029  1_565   S
    C167   S258      1.84025      .   S
    C168   H29       1.09989  1_565   S
    C168   S259      1.84437      .   S
    C211   H76       1.09923      .   S
    C211   S264      1.84425      .   S
    C212   H77       1.10011      .   S
    C212   S265      1.84443      .   S
    S271   C255      1.84528      .   S
    S271   C253      1.83613      .   S
    S261   C184      1.84442      .   S
    S261   C182      1.82403      .   S
    S270   C254      1.84448      .   S
    S270   C128      1.83487      .   S
    S260   C183      1.84425      .   S
    S260   C181      1.83511      .   S
    H45    C184      1.10011      .   S
    H44    C183      1.10005      .   S
    H134   C255      1.09988  1_545   S
    H133   C254      1.10001  1_545   S
    H132   C128      1.10403  1_655   S
    H43    C182      1.09264      .   S
    H42    C181      1.10380      .   S
    H131   C253      1.10378      .   S
    C184   H47       1.09709      .   S
    C184   C234      1.50162      .   S
    C183   H46       1.09681      .   S
    C183   C233      1.50171      .   S
    C255   H136      1.09711      .   S
    C255   C190      1.50171  1_565   S
    C254   H135      1.09706      .   S
    C254   C189      1.50152  1_565   S
    C182   H41       1.10325      .   S
    C182   C180      1.52127      .   S
    C128   H129      1.09781      .   S
    C128   C127      1.50694  1_455   S
    C181   H40       1.09761      .   S
    C181   C179      1.50670      .   S
    C253   H130      1.09786      .   S
    C253   C126      1.50683      .   S
    H51    C188      1.09208      .   S
    H103   C232      1.09208      .   S
    H102   C231      1.09185      .   S
    H50    C187      1.09179      .   S
    H123   C125      1.09007      .   S
    H39    C178      1.09017      .   S
    H122   C124      1.08930      .   S
    H38    C177      1.09007      .   S
    C232   C234      1.40231      .   S
    C232   C230      1.39452      .   S
    C188   C190      1.40230      .   S
    C188   C186      1.39572      .   S
    C231   C233      1.40232      .   S
    C231   C229      1.39589      .   S
    C187   C189      1.40231      .   S
    C187   C185      1.39598      .   S
    C125   C127      1.40003      .   S
    C125   C252      1.36953  1_565   S
    C178   C180      1.40007      .   S
    C178   C176      1.39020      .   S
    C124   C126      1.40014      .   S
    C124   C251      1.36998  1_565   S
    C177   C179      1.40008      .   S
    C177   C175      1.39025      .   S
    H48    C186      1.09145      .   S
    H101   C230      1.09126      .   S
    H100   C229      1.09144      .   S
    H49    C185      1.09172  1_655   S
    H121   C252      1.13283      .   S
    H37    C176      1.08927      .   S
    H120   C251      1.13345      .   S
    H36    C175      1.08913      .   S
