# CIF file generated by openbabel 2.4.90, see http://openbabel.sf.net
data_I
_chemical_name_common ''
_cell_length_a 14.364
_cell_length_b 12.417
_cell_length_c 20.761
_cell_angle_alpha 90
_cell_angle_beta 90
_cell_angle_gamma 90.051
_space_group_name_H-M_alt 'P 1'
_space_group_name_Hall 'P 1'
loop_
    _symmetry_equiv_pos_as_xyz
    x,y,z
loop_
    _atom_site_label
    _atom_site_type_symbol
    _atom_site_fract_x
    _atom_site_fract_y
    _atom_site_fract_z
    _atom_site_occupancy
    Cu0     Cu   0.62533   0.33380   0.24999   1.000
    Cu1     Cu   0.12485   0.83402   0.74998   1.000
    Cu2     Cu   0.62468   0.83384   0.74998   1.000
    Cu3     Cu   0.37464   0.66623   0.74998   1.000
    Cu4     Cu   0.87469   0.66622   0.74998   1.000
    Cu5     Cu   0.37529   0.16618   0.24999   1.000
    Cu6     Cu   0.87512   0.16600   0.24999   1.000
    Cu7     Cu   0.12528   0.33380   0.24999   1.000
    Br8     Br   0.44891   0.35040   0.24999   1.000
    Br9     Br   0.94883   0.35013   0.24999   1.000
    Br10    Br   0.30128   0.85043   0.74998   1.000
    Br11    Br   0.80114   0.85035   0.74998   1.000
    Br12    Br   0.05114   0.64990   0.74998   1.000
    Br13    Br   0.55106   0.64962   0.74998   1.000
    Br14    Br   0.19883   0.14967   0.24999   1.000
    Br15    Br   0.69869   0.14960   0.24999   1.000
loop_
    _geom_bond_atom_site_label_1
    _geom_bond_atom_site_label_2
    _geom_bond_distance
    _geom_bond_site_symmetry_2
    _ccdc_geom_bond_type
    Br14   Cu7       2.51945      .   S
    Br9    Cu6       2.51864      .   S
    Br8    Cu5       2.51923      .   S
    Cu0    Br15      2.51914      .   S
    Cu1    Br12      2.51862      .   S
    Cu4    Br11      2.51945      .   S
    Cu3    Br10      2.51914      .   S
    Cu2    Br13      2.51925      .   S
