# CIF file generated by openbabel 2.4.90, see http://openbabel.sf.net
data_I
_chemical_name_common ''
_cell_length_a 14.364
_cell_length_b 12.417
_cell_length_c 20.761
_cell_angle_alpha 90
_cell_angle_beta 90
_cell_angle_gamma 90.051
_space_group_name_H-M_alt 'P 1'
_space_group_name_Hall 'P 1'
loop_
    _symmetry_equiv_pos_as_xyz
    x,y,z
loop_
    _atom_site_label
    _atom_site_type_symbol
    _atom_site_fract_x
    _atom_site_fract_y
    _atom_site_fract_z
    _atom_site_occupancy
    C0      C    0.12528   0.33380   0.24999   1.000
    C1      C    0.62533   0.33380   0.24999   1.000
    C2      C    0.12485   0.83402   0.74998   1.000
    C3      C    0.62468   0.83384   0.74998   1.000
    C4      C    0.37464   0.66623   0.74998   1.000
    C5      C    0.87469   0.66622   0.74998   1.000
    C6      C    0.37529   0.16618   0.24999   1.000
    C7      C    0.87512   0.16600   0.24999   1.000
    C8      C    0.24097   0.24409   0.51214   1.000
    C9      C    0.74136   0.24388   0.51220   1.000
    C10     C    0.31492   0.32505   0.60820   1.000
    C11     C    0.81542   0.32483   0.60830   1.000
    C12     C    0.42534   0.57954   0.49020   1.000
    C13     C    0.92547   0.57950   0.49030   1.000
    C14     C    0.35563   0.49530   0.39365   1.000
    C15     C    0.85573   0.49523   0.39376   1.000
    C16     C    0.18679   0.26247   0.40389   1.000
    C17     C    0.68700   0.26232   0.40400   1.000
    C18     C    0.28628   0.27870   0.35466   1.000
    C19     C    0.78649   0.27843   0.35481   1.000
    C20     C    0.05639   0.53234   0.35033   1.000
    C21     C    0.55676   0.53226   0.35041   1.000
    C22     C    0.04315   0.41578   0.39818   1.000
    C23     C    0.54342   0.41573   0.39820   1.000
    C24     C    0.00886   0.74413   0.48785   1.000
    C25     C    0.50874   0.74409   0.48763   1.000
    C26     C    0.43461   0.82499   0.39166   1.000
    C27     C    0.93465   0.82487   0.39186   1.000
    C28     C    0.32462   0.07928   0.50976   1.000
    C29     C    0.82453   0.07920   0.50987   1.000
    C30     C    0.39443   0.99504   0.60629   1.000
    C31     C    0.89441   0.99511   0.60642   1.000
    C32     C    0.06316   0.76256   0.59609   1.000
    C33     C    0.56312   0.76246   0.59587   1.000
    C34     C    0.46364   0.77837   0.64513   1.000
    C35     C    0.96374   0.77874   0.64539   1.000
    C36     C    0.19380   0.03269   0.64933   1.000
    C37     C    0.69357   0.03240   0.64954   1.000
    C38     C    0.20684   0.91612   0.60151   1.000
    C39     C    0.70673   0.91593   0.60165   1.000
    C40     C    0.25860   0.75614   0.01228   1.000
    C41     C    0.75899   0.75593   0.01215   1.000
    C42     C    0.18454   0.67520   0.10831   1.000
    C43     C    0.68505   0.67498   0.10820   1.000
    C44     C    0.07449   0.42052   0.99034   1.000
    C45     C    0.57463   0.42048   0.99020   1.000
    C46     C    0.14424   0.50479   0.89375   1.000
    C47     C    0.64434   0.50473   0.89364   1.000
    C48     C    0.31297   0.73771   0.90400   1.000
    C49     C    0.81318   0.73755   0.90388   1.000
    C50     C    0.21348   0.72159   0.85480   1.000
    C51     C    0.71369   0.72132   0.85460   1.000
    C52     C    0.44321   0.46776   0.85040   1.000
    C53     C    0.94358   0.46769   0.85032   1.000
    C54     C    0.45655   0.58429   0.89820   1.000
    C55     C    0.95681   0.58424   0.89817   1.000
    C56     C    0.49123   0.25593   0.98762   1.000
    C57     C    0.99111   0.25589   0.98784   1.000
    C58     C    0.06532   0.17515   0.89185   1.000
    C59     C    0.56536   0.17503   0.89165   1.000
    C60     C    0.17544   0.92083   0.00988   1.000
    C61     C    0.67534   0.92075   0.00977   1.000
    C62     C    0.10556   0.00491   0.10643   1.000
    C63     C    0.60554   0.00498   0.10630   1.000
    C64     C    0.43685   0.23756   0.09588   1.000
    C65     C    0.93680   0.23746   0.09610   1.000
    C66     C    0.03623   0.22129   0.14540   1.000
    C67     C    0.53632   0.22165   0.14514   1.000
    C68     C    0.30639   0.96762   0.14955   1.000
    C69     C    0.80617   0.96733   0.14934   1.000
    C70     C    0.29324   0.08409   0.10166   1.000
    C71     C    0.79313   0.08390   0.10152   1.000
    C72     C    0.25860   0.75614   0.48770   1.000
    C73     C    0.75899   0.75593   0.48783   1.000
    C74     C    0.18454   0.67520   0.39167   1.000
    C75     C    0.68504   0.67498   0.39177   1.000
    C76     C    0.07449   0.42052   0.50960   1.000
    C77     C    0.57463   0.42048   0.50971   1.000
    C78     C    0.14424   0.50479   0.60621   1.000
    C79     C    0.64434   0.50473   0.60632   1.000
    C80     C    0.31297   0.73771   0.59593   1.000
    C81     C    0.81318   0.73755   0.59608   1.000
    C82     C    0.21348   0.72159   0.64516   1.000
    C83     C    0.71369   0.72132   0.64531   1.000
    C84     C    0.44321   0.46777   0.64950   1.000
    C85     C    0.94358   0.46769   0.64964   1.000
    C86     C    0.45655   0.58429   0.60171   1.000
    C87     C    0.95681   0.58424   0.60100   1.000
    C88     C    0.49123   0.25593   0.51234   1.000
    C89     C    0.99111   0.25589   0.51212   1.000
    C90     C    0.06532   0.17515   0.60810   1.000
    C91     C    0.56535   0.17503   0.60831   1.000
    C92     C    0.17544   0.92083   0.49010   1.000
    C93     C    0.67534   0.92075   0.49021   1.000
    C94     C    0.10556   0.00491   0.39355   1.000
    C95     C    0.60554   0.00498   0.39368   1.000
    C96     C    0.43685   0.23756   0.40410   1.000
    C97     C    0.93680   0.23746   0.40388   1.000
    C98     C    0.03623   0.22129   0.35458   1.000
    C99     C    0.53632   0.22165   0.35484   1.000
    C100    C    0.30639   0.96762   0.35043   1.000
    C101    C    0.80617   0.96733   0.35064   1.000
    C102    C    0.29324   0.08409   0.39832   1.000
    C103    C    0.79313   0.08390   0.39846   1.000
    C104    C    0.24097   0.24409   0.98782   1.000
    C105    C    0.74136   0.24388   0.98769   1.000
    C106    C    0.31492   0.32505   0.89176   1.000
    C107    C    0.81542   0.32483   0.89166   1.000
    C108    C    0.42534   0.57954   0.00970   1.000
    C109    C    0.92548   0.57950   0.00960   1.000
    C110    C    0.35563   0.49530   0.10633   1.000
    C111    C    0.85573   0.49523   0.10622   1.000
    C112    C    0.18679   0.26247   0.09609   1.000
    C113    C    0.68700   0.26232   0.09590   1.000
    C114    C    0.28628   0.27870   0.14532   1.000
    C115    C    0.78649   0.27843   0.14517   1.000
    C116    C    0.05639   0.53233   0.14965   1.000
    C117    C    0.55676   0.53226   0.14957   1.000
    C118    C    0.04315   0.41578   0.10180   1.000
    C119    C    0.54342   0.41573   0.10172   1.000
    C120    C    0.00886   0.74413   0.01213   1.000
    C121    C    0.50873   0.74409   0.01235   1.000
    C122    C    0.43461   0.82499   0.10832   1.000
    C123    C    0.93465   0.82487   0.10810   1.000
    C124    C    0.32462   0.07928   0.99020   1.000
    C125    C    0.82453   0.07920   0.99009   1.000
    C126    C    0.39443   0.99504   0.89367   1.000
    C127    C    0.89441   0.99511   0.89354   1.000
    C128    C    0.06316   0.76256   0.90387   1.000
    C129    C    0.56312   0.76246   0.90409   1.000
    C130    C    0.46364   0.77837   0.85483   1.000
    C131    C    0.96374   0.77874   0.85457   1.000
    C132    C    0.19380   0.03269   0.85063   1.000
    C133    C    0.69357   0.03240   0.85042   1.000
    C134    C    0.20684   0.91612   0.89845   1.000
    C135    C    0.70673   0.91593   0.89831   1.000
    C136    C    0.28412   0.31593   0.50677   1.000
    C137    C    0.78446   0.31576   0.50689   1.000
    C138    C    0.32541   0.36203   0.56104   1.000
    C139    C    0.82581   0.36186   0.56110   1.000
    C140    C    0.37445   0.45942   0.55628   1.000
    C141    C    0.87477   0.45929   0.55637   1.000
    C142    C    0.38683   0.50435   0.49498   1.000
    C143    C    0.88702   0.50427   0.49507   1.000
    C144    C    0.34780   0.45706   0.44061   1.000
    C145    C    0.84798   0.45696   0.44071   1.000
    C146    C    0.29246   0.36463   0.44605   1.000
    C147    C    0.79270   0.36448   0.44616   1.000
    C148    C    0.24009   0.32072   0.38890   1.000
    C149    C    0.74031   0.32053   0.38903   1.000
    C150    C    0.09207   0.48019   0.38532   1.000
    C151    C    0.59239   0.48008   0.38540   1.000
    C152    C    0.46563   0.81586   0.49306   1.000
    C153    C    0.96569   0.81588   0.49326   1.000
    C154    C    0.42425   0.86194   0.43885   1.000
    C155    C    0.92427   0.86187   0.43902   1.000
    C156    C    0.37529   0.95927   0.44367   1.000
    C157    C    0.87525   0.95916   0.44381   1.000
    C158    C    0.36307   0.00000   0.50499   1.000
    C159    C    0.86302   0.00000   0.50512   1.000
    C160    C    0.40215   0.95685   0.55932   1.000
    C161    C    0.90214   0.95688   0.55946   1.000
    C162    C    0.45742   0.86449   0.55381   1.000
    C163    C    0.95745   0.86456   0.55398   1.000
    C164    C    0.00993   0.82077   0.61110   1.000
    C165    C    0.50982   0.82057   0.61092   1.000
    C166    C    0.15798   0.98046   0.61440   1.000
    C167    C    0.65784   0.98024   0.61456   1.000
    C168    C    0.21551   0.68426   0.00690   1.000
    C169    C    0.71585   0.68409   0.00678   1.000
    C170    C    0.17416   0.63816   0.06110   1.000
    C171    C    0.67455   0.63799   0.06105   1.000
    C172    C    0.12520   0.54073   0.05638   1.000
    C173    C    0.62552   0.54060   0.05629   1.000
    C174    C    0.11294   0.49575   0.99506   1.000
    C175    C    0.61314   0.49567   0.99497   1.000
    C176    C    0.15199   0.54306   0.94070   1.000
    C177    C    0.65217   0.54296   0.94060   1.000
    C178    C    0.20726   0.63555   0.94615   1.000
    C179    C    0.70751   0.63540   0.94604   1.000
    C180    C    0.25965   0.67949   0.88902   1.000
    C181    C    0.75988   0.67930   0.88800   1.000
    C182    C    0.40758   0.51995   0.88539   1.000
    C183    C    0.90789   0.51984   0.88531   1.000
    C184    C    0.03428   0.18415   0.99325   1.000
    C185    C    0.53433   0.18416   0.99305   1.000
    C186    C    0.07570   0.13816   0.93901   1.000
    C187    C    0.57572   0.13808   0.93884   1.000
    C188    C    0.12471   0.04086   0.94380   1.000
    C189    C    0.62467   0.04075   0.94366   1.000
    C190    C    0.13695   0.99592   0.00513   1.000
    C191    C    0.63690   0.99587   0.00500   1.000
    C192    C    0.09783   0.04314   0.05947   1.000
    C193    C    0.59782   0.04317   0.05930   1.000
    C194    C    0.04252   0.13546   0.05399   1.000
    C195    C    0.54255   0.13554   0.05382   1.000
    C196    C    0.49015   0.17945   0.11093   1.000
    C197    C    0.99004   0.17925   0.11111   1.000
    C198    C    0.34213   0.01978   0.11457   1.000
    C199    C    0.84198   0.01956   0.11443   1.000
    C200    C    0.21551   0.68426   0.49308   1.000
    C201    C    0.71585   0.68409   0.49320   1.000
    C202    C    0.17416   0.63816   0.43880   1.000
    C203    C    0.67455   0.63799   0.43893   1.000
    C204    C    0.12520   0.54073   0.44360   1.000
    C205    C    0.62552   0.54060   0.44369   1.000
    C206    C    0.11294   0.49575   0.50490   1.000
    C207    C    0.61314   0.49567   0.50499   1.000
    C208    C    0.15199   0.54306   0.55926   1.000
    C209    C    0.65217   0.54296   0.55936   1.000
    C210    C    0.20726   0.63555   0.55381   1.000
    C211    C    0.70750   0.63540   0.55392   1.000
    C212    C    0.25965   0.67949   0.61090   1.000
    C213    C    0.75987   0.67930   0.61107   1.000
    C214    C    0.40758   0.51995   0.61457   1.000
    C215    C    0.90789   0.51983   0.61465   1.000
    C216    C    0.03428   0.18415   0.50670   1.000
    C217    C    0.53433   0.18416   0.50691   1.000
    C218    C    0.07570   0.13816   0.56095   1.000
    C219    C    0.57572   0.13808   0.56112   1.000
    C220    C    0.12471   0.04086   0.55616   1.000
    C221    C    0.62468   0.04075   0.55630   1.000
    C222    C    0.13695   0.99592   0.49485   1.000
    C223    C    0.63690   0.99587   0.49498   1.000
    C224    C    0.09783   0.04314   0.44051   1.000
    C225    C    0.59782   0.04317   0.44060   1.000
    C226    C    0.04252   0.13546   0.44599   1.000
    C227    C    0.54255   0.13553   0.44616   1.000
    C228    C    0.49015   0.17945   0.38905   1.000
    C229    C    0.99004   0.17925   0.38887   1.000
    C230    C    0.34213   0.01978   0.38541   1.000
    C231    C    0.84198   0.01956   0.38555   1.000
    C232    C    0.28411   0.31593   0.99319   1.000
    C233    C    0.78446   0.31576   0.99300   1.000
    C234    C    0.32541   0.36203   0.93892   1.000
    C235    C    0.82581   0.36186   0.93883   1.000
    C236    C    0.37445   0.45942   0.94368   1.000
    C237    C    0.87477   0.45929   0.94359   1.000
    C238    C    0.38683   0.50435   0.00500   1.000
    C239    C    0.88703   0.50427   0.00491   1.000
    C240    C    0.34780   0.45706   0.05937   1.000
    C241    C    0.84798   0.45696   0.05927   1.000
    C242    C    0.29246   0.36463   0.05393   1.000
    C243    C    0.79271   0.36448   0.05382   1.000
    C244    C    0.24009   0.32072   0.11108   1.000
    C245    C    0.74032   0.32053   0.11095   1.000
    C246    C    0.09207   0.48019   0.11466   1.000
    C247    C    0.59239   0.48008   0.11458   1.000
    C248    C    0.46563   0.81586   0.00692   1.000
    C249    C    0.96569   0.81588   0.00670   1.000
    C250    C    0.42425   0.86194   0.06113   1.000
    C251    C    0.92427   0.86187   0.06096   1.000
    C252    C    0.37529   0.95927   0.05631   1.000
    C253    C    0.87525   0.95916   0.05617   1.000
    C254    C    0.36307   0.00000   0.99497   1.000
    C255    C    0.86302   0.00000   0.99484   1.000
    C256    C    0.40215   0.95685   0.94060   1.000
    C257    C    0.90214   0.95688   0.94050   1.000
    C258    C    0.45742   0.86449   0.94615   1.000
    C259    C    0.95745   0.86456   0.94598   1.000
    C260    C    0.00993   0.82077   0.88886   1.000
    C261    C    0.50982   0.82057   0.88904   1.000
    C262    C    0.15798   0.98046   0.88554   1.000
    C263    C    0.65784   0.98024   0.88540   1.000
    C264    C    0.18714   0.42272   0.33652   1.000
    C265    C    0.68739   0.42249   0.33660   1.000
    C266    C    0.06306   0.92288   0.66300   1.000
    C267    C    0.56281   0.92256   0.66338   1.000
    C268    C    0.31258   0.57753   0.83659   1.000
    C269    C    0.81283   0.57730   0.83651   1.000
    C270    C    0.43715   0.07746   0.16330   1.000
    C271    C    0.93691   0.07714   0.16340   1.000
    C272    C    0.31258   0.57753   0.66337   1.000
    C273    C    0.81283   0.57730   0.66345   1.000
    C274    C    0.43715   0.07746   0.33600   1.000
    C275    C    0.93691   0.07714   0.33658   1.000
    C276    C    0.18714   0.42272   0.16346   1.000
    C277    C    0.68738   0.42249   0.16338   1.000
    C278    C    0.06306   0.92288   0.83657   1.000
    C279    C    0.56281   0.92256   0.83650   1.000
    C280    C    0.44891   0.35040   0.24999   1.000
    C281    C    0.94883   0.35013   0.24999   1.000
    C282    C    0.30128   0.85043   0.74998   1.000
    C283    C    0.80114   0.85035   0.74998   1.000
    C284    C    0.05114   0.64990   0.74998   1.000
    C285    C    0.55106   0.64962   0.74998   1.000
    C286    C    0.19883   0.14967   0.24999   1.000
    C287    C    0.69869   0.14960   0.24999   1.000
    O288    O    0.90625   0.54189   0.00726   1.000
    O289    O    0.86750   0.48062   0.03209   1.000
    O290    O    0.88090   0.48178   0.97425   1.000
    O291    O    0.40608   0.54195   0.00735   1.000
    O292    O    0.36731   0.48071   0.03218   1.000
    O293    O    0.38064   0.48189   0.97434   1.000
    O294    O    0.65612   0.95831   0.00738   1.000
    O295    O    0.61736   0.01952   0.03215   1.000
    O296    O    0.63079   0.01831   0.97433   1.000
    O297    O    0.15619   0.95838   0.00751   1.000
    O298    O    0.11739   0.01953   0.03230   1.000
    O299    O    0.13083   0.01839   0.97447   1.000
    O300    O    0.98727   0.78000   0.00941   1.000
    O301    O    0.94498   0.83887   0.03383   1.000
    O302    O    0.96157   0.84022   0.97634   1.000
    O303    O    0.73742   0.72001   0.00946   1.000
    O304    O    0.69520   0.66104   0.03392   1.000
    O305    O    0.71168   0.65974   0.97641   1.000
    O306    O    0.23706   0.72020   0.00959   1.000
    O307    O    0.19483   0.66121   0.03400   1.000
    O308    O    0.21139   0.65990   0.97652   1.000
    O309    O    0.48718   0.77998   0.00963   1.000
    O310    O    0.44494   0.83890   0.03402   1.000
    O311    O    0.46153   0.84018   0.97653   1.000
    O312    O    0.82034   0.41072   0.05654   1.000
    O313    O    0.76651   0.34250   0.08238   1.000
    O314    O    0.78858   0.34012   0.02341   1.000
    O315    O    0.57019   0.08935   0.05656   1.000
    O316    O    0.51635   0.15749   0.08238   1.000
    O317    O    0.53844   0.15985   0.02343   1.000
    O318    O    0.32013   0.41084   0.05665   1.000
    O319    O    0.26628   0.34268   0.08250   1.000
    O320    O    0.28829   0.34028   0.02356   1.000
    O321    O    0.07017   0.08930   0.05673   1.000
    O322    O    0.01628   0.15736   0.08255   1.000
    O323    O    0.03840   0.15980   0.02362   1.000
    O324    O    0.89976   0.91051   0.05856   1.000
    O325    O    0.85862   0.98936   0.08530   1.000
    O326    O    0.86913   0.97958   0.02550   1.000
    O327    O    0.65004   0.58930   0.05867   1.000
    O328    O    0.60896   0.51034   0.08543   1.000
    O329    O    0.61933   0.51814   0.02563   1.000
    O330    O    0.39977   0.91061   0.05872   1.000
    O331    O    0.35871   0.98952   0.08544   1.000
    O332    O    0.36918   0.97963   0.02564   1.000
    O333    O    0.14968   0.58944   0.05874   1.000
    O334    O    0.10864   0.51046   0.08552   1.000
    O335    O    0.11907   0.51824   0.02572   1.000
    O336    O    0.85185   0.47610   0.08274   1.000
    O337    O    0.60168   0.02407   0.08280   1.000
    O338    O    0.35171   0.47618   0.08285   1.000
    O339    O    0.10169   0.02402   0.08295   1.000
    O340    O    0.92946   0.84337   0.08453   1.000
    O341    O    0.67980   0.65648   0.08462   1.000
    O342    O    0.17935   0.65668   0.08470   1.000
    O343    O    0.42943   0.84347   0.08472   1.000
    O344    O    0.46350   0.20850   0.10340   1.000
    O345    O    0.71366   0.29142   0.10342   1.000
    O346    O    0.21344   0.29160   0.10358   1.000
    O347    O    0.96342   0.20836   0.10361   1.000
    O348    O    0.81756   0.05173   0.10798   1.000
    O349    O    0.31768   0.05194   0.10812   1.000
    O350    O    0.56790   0.44790   0.10815   1.000
    O351    O    0.06761   0.44798   0.10823   1.000
    O352    O    0.51324   0.20055   0.12803   1.000
    O353    O    0.46365   0.12846   0.13711   1.000
    O354    O    0.76340   0.29948   0.12806   1.000
    O355    O    0.71385   0.37151   0.13716   1.000
    O356    O    0.26319   0.29971   0.12820   1.000
    O357    O    0.21361   0.37172   0.13727   1.000
    O358    O    0.01313   0.20027   0.12825   1.000
    O359    O    0.96347   0.12820   0.13725   1.000
    O360    O    0.82408   0.99345   0.13188   1.000
    O361    O    0.88945   0.04835   0.13891   1.000
    O362    O    0.32426   0.99370   0.13206   1.000
    O363    O    0.38964   0.04862   0.13893   1.000
    O364    O    0.57457   0.50617   0.13208   1.000
    O365    O    0.63989   0.45128   0.13898   1.000
    O366    O    0.07423   0.50626   0.13215   1.000
    O367    O    0.13961   0.45145   0.13906   1.000
    O368    O    0.40622   0.12182   0.20664   1.000
    O369    O    0.65635   0.37814   0.20668   1.000
    O370    O    0.90601   0.12157   0.20669   1.000
    O371    O    0.15621   0.37826   0.20672   1.000
    O372    O    0.16205   0.24174   0.24999   1.000
    O373    O    0.91197   0.25806   0.24999   1.000
    O374    O    0.41210   0.25829   0.24999   1.000
    O375    O    0.66201   0.24170   0.24999   1.000
    O376    O    0.65636   0.37814   0.29329   1.000
    O377    O    0.15621   0.37826   0.29325   1.000
    O378    O    0.40622   0.12182   0.29300   1.000
    O379    O    0.90601   0.12157   0.29328   1.000
    O380    O    0.38964   0.04862   0.36070   1.000
    O381    O    0.46365   0.12846   0.36252   1.000
    O382    O    0.13961   0.45145   0.36092   1.000
    O383    O    0.21361   0.37172   0.36271   1.000
    O384    O    0.88945   0.04835   0.36106   1.000
    O385    O    0.96347   0.12820   0.36272   1.000
    O386    O    0.63989   0.45128   0.36100   1.000
    O387    O    0.71385   0.37151   0.36281   1.000
    O388    O    0.07423   0.50626   0.36782   1.000
    O389    O    0.57457   0.50617   0.36790   1.000
    O390    O    0.32426   0.99370   0.36792   1.000
    O391    O    0.82408   0.99345   0.36810   1.000
    O392    O    0.01313   0.20027   0.37172   1.000
    O393    O    0.26319   0.29971   0.37178   1.000
    O394    O    0.76340   0.29948   0.37192   1.000
    O395    O    0.51324   0.20055   0.37194   1.000
    O396    O    0.06761   0.44798   0.39175   1.000
    O397    O    0.10864   0.51046   0.41446   1.000
    O398    O    0.56790   0.44790   0.39180   1.000
    O399    O    0.60896   0.51034   0.41455   1.000
    O400    O    0.31768   0.05194   0.39186   1.000
    O401    O    0.35871   0.98952   0.41454   1.000
    O402    O    0.81756   0.05173   0.39200   1.000
    O403    O    0.85862   0.98936   0.41468   1.000
    O404    O    0.96342   0.20836   0.39637   1.000
    O405    O    0.01628   0.15736   0.41743   1.000
    O406    O    0.21344   0.29160   0.39639   1.000
    O407    O    0.26628   0.34268   0.41747   1.000
    O408    O    0.71366   0.29142   0.39651   1.000
    O409    O    0.76651   0.34250   0.41759   1.000
    O410    O    0.46350   0.20851   0.39658   1.000
    O411    O    0.51635   0.15749   0.41761   1.000
    O412    O    0.42943   0.84347   0.41525   1.000
    O413    O    0.17935   0.65668   0.41524   1.000
    O414    O    0.67980   0.65648   0.41535   1.000
    O415    O    0.92946   0.84337   0.41544   1.000
    O416    O    0.10169   0.02402   0.41703   1.000
    O417    O    0.35171   0.47618   0.41713   1.000
    O418    O    0.60168   0.02408   0.41714   1.000
    O419    O    0.85185   0.47610   0.41723   1.000
    O420    O    0.14968   0.58945   0.44120   1.000
    O421    O    0.19483   0.66121   0.46594   1.000
    O422    O    0.39977   0.91061   0.44126   1.000
    O423    O    0.44494   0.83890   0.46596   1.000
    O424    O    0.65004   0.58930   0.44131   1.000
    O425    O    0.69520   0.66104   0.46607   1.000
    O426    O    0.89976   0.91051   0.44141   1.000
    O427    O    0.94498   0.83887   0.46614   1.000
    O428    O    0.07017   0.08930   0.44325   1.000
    O429    O    0.11739   0.01953   0.46768   1.000
    O430    O    0.57019   0.08935   0.44338   1.000
    O431    O    0.61736   0.01952   0.46779   1.000
    O432    O    0.32013   0.41084   0.44333   1.000
    O433    O    0.36731   0.48071   0.46779   1.000
    O434    O    0.82034   0.41072   0.44343   1.000
    O435    O    0.86750   0.48062   0.46789   1.000
    O436    O    0.11907   0.51824   0.47425   1.000
    O437    O    0.36918   0.97963   0.47433   1.000
    O438    O    0.61933   0.51814   0.47434   1.000
    O439    O    0.86913   0.97958   0.47446   1.000
    O440    O    0.03840   0.15981   0.47635   1.000
    O441    O    0.28829   0.34028   0.47641   1.000
    O442    O    0.53844   0.15985   0.47653   1.000
    O443    O    0.78858   0.34012   0.47652   1.000
    O444    O    0.48718   0.77998   0.49034   1.000
    O445    O    0.23706   0.72020   0.49039   1.000
    O446    O    0.73742   0.72001   0.49051   1.000
    O447    O    0.98727   0.78000   0.49055   1.000
    O448    O    0.15619   0.95838   0.49247   1.000
    O449    O    0.40608   0.54195   0.49259   1.000
    O450    O    0.65612   0.95831   0.49259   1.000
    O451    O    0.90625   0.54189   0.49269   1.000
    O452    O    0.46152   0.84018   0.52343   1.000
    O453    O    0.21138   0.65990   0.52344   1.000
    O454    O    0.71168   0.65974   0.52356   1.000
    O455    O    0.96157   0.84022   0.52362   1.000
    O456    O    0.13083   0.01839   0.52550   1.000
    O457    O    0.38064   0.48189   0.52563   1.000
    O458    O    0.63079   0.01831   0.52564   1.000
    O459    O    0.88090   0.48178   0.52572   1.000
    O460    O    0.09372   0.45814   0.50725   1.000
    O461    O    0.13246   0.51941   0.53208   1.000
    O462    O    0.34384   0.03964   0.50738   1.000
    O463    O    0.38261   0.97843   0.53216   1.000
    O464    O    0.59388   0.45808   0.50735   1.000
    O465    O    0.63265   0.51932   0.53217   1.000
    O466    O    0.84377   0.03960   0.50749   1.000
    O467    O    0.88258   0.97844   0.53229   1.000
    O468    O    0.01269   0.22002   0.50941   1.000
    O469    O    0.05499   0.16115   0.53382   1.000
    O470    O    0.26254   0.28001   0.50945   1.000
    O471    O    0.30476   0.33898   0.53390   1.000
    O472    O    0.76291   0.27982   0.50955   1.000
    O473    O    0.80513   0.33881   0.53399   1.000
    O474    O    0.51278   0.22005   0.50962   1.000
    O475    O    0.55503   0.16112   0.53401   1.000
    O476    O    0.42978   0.91067   0.55656   1.000
    O477    O    0.48362   0.84253   0.58236   1.000
    O478    O    0.17962   0.58930   0.55653   1.000
    O479    O    0.23346   0.65752   0.58235   1.000
    O480    O    0.67984   0.58918   0.55664   1.000
    O481    O    0.73369   0.65735   0.58249   1.000
    O482    O    0.92979   0.91072   0.55672   1.000
    O483    O    0.98369   0.84267   0.58254   1.000
    O484    O    0.10021   0.08951   0.55855   1.000
    O485    O    0.14135   0.01066   0.58528   1.000
    O486    O    0.34993   0.41073   0.55866   1.000
    O487    O    0.39101   0.48968   0.58542   1.000
    O488    O    0.60020   0.08942   0.55871   1.000
    O489    O    0.64126   0.01050   0.58543   1.000
    O490    O    0.85029   0.41058   0.55874   1.000
    O491    O    0.89133   0.48956   0.58551   1.000
    O492    O    0.14811   0.52393   0.58274   1.000
    O493    O    0.39829   0.97595   0.58280   1.000
    O494    O    0.64826   0.52384   0.58284   1.000
    O495    O    0.89827   0.97600   0.58294   1.000
    O496    O    0.07051   0.15665   0.58452   1.000
    O497    O    0.32017   0.34354   0.58462   1.000
    O498    O    0.82061   0.34335   0.58470   1.000
    O499    O    0.57054   0.15655   0.58471   1.000
    O500    O    0.53647   0.79152   0.60340   1.000
    O501    O    0.28631   0.70860   0.60341   1.000
    O502    O    0.78653   0.70842   0.60357   1.000
    O503    O    0.03655   0.79167   0.60359   1.000
    O504    O    0.93235   0.55204   0.60782   1.000
    O505    O    0.18241   0.94829   0.60795   1.000
    O506    O    0.68228   0.94809   0.60810   1.000
    O507    O    0.43206   0.55212   0.60814   1.000
    O508    O    0.23657   0.70054   0.62803   1.000
    O509    O    0.28612   0.62851   0.63714   1.000
    O510    O    0.48673   0.79947   0.62803   1.000
    O511    O    0.53632   0.87157   0.63715   1.000
    O512    O    0.73678   0.70031   0.62819   1.000
    O513    O    0.78635   0.62830   0.63726   1.000
    O514    O    0.98683   0.79975   0.62824   1.000
    O515    O    0.03649   0.87183   0.63705   1.000
    O516    O    0.17589   0.00657   0.63187   1.000
    O517    O    0.11052   0.95167   0.63870   1.000
    O518    O    0.67571   0.00632   0.63205   1.000
    O519    O    0.61033   0.95140   0.63897   1.000
    O520    O    0.42539   0.49386   0.63203   1.000
    O521    O    0.36008   0.54874   0.63897   1.000
    O522    O    0.92573   0.49376   0.63214   1.000
    O523    O    0.86036   0.54857   0.63905   1.000
    O524    O    0.09395   0.87845   0.70649   1.000
    O525    O    0.34361   0.62188   0.70668   1.000
    O526    O    0.59375   0.87820   0.70668   1.000
    O527    O    0.84376   0.62176   0.70671   1.000
    O528    O    0.08799   0.74196   0.74998   1.000
    O529    O    0.09395   0.87845   0.79328   1.000
    O530    O    0.83791   0.75829   0.74998   1.000
    O531    O    0.84376   0.62176   0.79324   1.000
    O532    O    0.33796   0.75833   0.74998   1.000
    O533    O    0.34361   0.62188   0.79328   1.000
    O534    O    0.58787   0.74173   0.74998   1.000
    O535    O    0.59375   0.87820   0.79324   1.000
    O536    O    0.61033   0.95140   0.86095   1.000
    O537    O    0.53632   0.87157   0.86277   1.000
    O538    O    0.86036   0.54857   0.86091   1.000
    O539    O    0.78635   0.62830   0.86225   1.000
    O540    O    0.11052   0.95167   0.86106   1.000
    O541    O    0.03649   0.87183   0.86271   1.000
    O542    O    0.36008   0.54874   0.86099   1.000
    O543    O    0.28612   0.62851   0.86280   1.000
    O544    O    0.92573   0.49376   0.86781   1.000
    O545    O    0.42539   0.49386   0.86789   1.000
    O546    O    0.67571   0.00632   0.86791   1.000
    O547    O    0.17589   0.00657   0.86808   1.000
    O548    O    0.98683   0.79975   0.87172   1.000
    O549    O    0.73678   0.70031   0.87130   1.000
    O550    O    0.23657   0.70054   0.87191   1.000
    O551    O    0.48673   0.79947   0.87194   1.000
    O552    O    0.93235   0.55204   0.89174   1.000
    O553    O    0.89133   0.48957   0.91445   1.000
    O554    O    0.43206   0.55212   0.89179   1.000
    O555    O    0.39101   0.48968   0.91453   1.000
    O556    O    0.68228   0.94809   0.89185   1.000
    O557    O    0.64126   0.01050   0.91453   1.000
    O558    O    0.18241   0.94829   0.89200   1.000
    O559    O    0.14135   0.01066   0.91467   1.000
    O560    O    0.78653   0.70842   0.89594   1.000
    O561    O    0.73369   0.65735   0.91702   1.000
    O562    O    0.03655   0.79167   0.89636   1.000
    O563    O    0.98369   0.84267   0.91742   1.000
    O564    O    0.28631   0.70860   0.89651   1.000
    O565    O    0.23346   0.65752   0.91758   1.000
    O566    O    0.53647   0.79152   0.89656   1.000
    O567    O    0.48362   0.84253   0.91760   1.000
    O568    O    0.57054   0.15656   0.91524   1.000
    O569    O    0.82062   0.34334   0.91524   1.000
    O570    O    0.32017   0.34354   0.91534   1.000
    O571    O    0.07051   0.15665   0.91543   1.000
    O572    O    0.89827   0.97600   0.91702   1.000
    O573    O    0.64825   0.52385   0.91712   1.000
    O574    O    0.39829   0.97595   0.91713   1.000
    O575    O    0.14811   0.52393   0.91722   1.000
    O576    O    0.85029   0.41058   0.94121   1.000
    O577    O    0.80513   0.33881   0.96591   1.000
    O578    O    0.60020   0.08942   0.94125   1.000
    O579    O    0.55503   0.16112   0.96595   1.000
    O580    O    0.34993   0.41073   0.94130   1.000
    O581    O    0.30476   0.33898   0.96606   1.000
    O582    O    0.10021   0.08951   0.94140   1.000
    O583    O    0.05499   0.16115   0.96613   1.000
    O584    O    0.92979   0.91072   0.94324   1.000
    O585    O    0.88258   0.97844   0.96767   1.000
    O586    O    0.67984   0.58918   0.94332   1.000
    O587    O    0.63265   0.51932   0.96779   1.000
    O588    O    0.42978   0.91067   0.94337   1.000
    O589    O    0.38261   0.97843   0.96779   1.000
    O590    O    0.17962   0.58930   0.94342   1.000
    O591    O    0.13246   0.51941   0.96788   1.000
    O592    O    0.51278   0.22005   0.99033   1.000
    O593    O    0.76291   0.27982   0.99035   1.000
    O594    O    0.26254   0.28001   0.99050   1.000
    O595    O    0.01269   0.22002   0.99055   1.000
    O596    O    0.84377   0.03960   0.99246   1.000
    O597    O    0.59388   0.45808   0.99258   1.000
    O598    O    0.34385   0.03964   0.99258   1.000
    O599    O    0.09372   0.45814   0.99270   1.000
loop_
    _geom_bond_atom_site_label_1
    _geom_bond_atom_site_label_2
    _geom_bond_distance
    _geom_bond_site_symmetry_2
    _ccdc_geom_bond_type
    C239   O288      0.54454      .   S
    C109   O288      0.54454      .   S
    C239   O289      0.69513      .   S
    C241   O289      0.69513      .   S
    C239   O290      0.70061  1_554   S
    C237   O290      0.70061      .   S
    C238   O291      0.54457      .   S
    C108   O291      0.54457      .   S
    C238   O292      0.69510      .   S
    C240   O292      0.69510      .   S
    C238   O293      0.70061  1_554   S
    C236   O293      0.70061      .   S
    C191   O294      0.54447      .   S
    C61    O294      0.54447      .   S
    C191   O295      0.69490  1_565   S
    C193   O295      0.69490      .   S
    C191   O296      0.70060  1_564   S
    C189   O296      0.70060      .   S
    C190   O297      0.54446      .   S
    C60    O297      0.54446      .   S
    C190   O298      0.69512  1_565   S
    C192   O298      0.69512      .   S
    C190   O299      0.70066  1_564   S
    C188   O299      0.70066      .   S
    C249   O300      0.54588      .   S
    C120   O300      0.54588  1_455   S
    C249   O301      0.69816      .   S
    C251   O301      0.69816      .   S
    C249   O302      0.70155  1_554   S
    C259   O302      0.70155      .   S
    C169   O303      0.54572      .   S
    C41    O303      0.54572      .   S
    C169   O304      0.69794      .   S
    C171   O304      0.69794      .   S
    C169   O305      0.70179  1_554   S
    C179   O305      0.70179      .   S
    C168   O306      0.54570      .   S
    C40    O306      0.54570      .   S
    C168   O307      0.69752      .   S
    C170   O307      0.69752      .   S
    C168   O308      0.70188  1_554   S
    C178   O308      0.70188      .   S
    C248   O309      0.54572      .   S
    C121   O309      0.54572      .   S
    C248   O310      0.69786      .   S
    C250   O310      0.69786      .   S
    C248   O311      0.70185  1_554   S
    C258   O311      0.70185      .   S
    C243   O312      0.70003      .   S
    C241   O312      0.70003      .   S
    C243   O313      0.75335      .   S
    C245   O313      0.75335      .   S
    C243   O314      0.70254      .   S
    C233   O314      0.70254  1_556   S
    C195   O315      0.70001      .   S
    C193   O315      0.70001      .   S
    C195   O316      0.75341      .   S
    C196   O316      0.75341      .   S
    C195   O317      0.70184      .   S
    C185   O317      0.70184  1_556   S
    C242   O318      0.70003      .   S
    C240   O318      0.70003      .   S
    C242   O319      0.75334      .   S
    C244   O319      0.75334      .   S
    C242   O320      0.70180      .   S
    C232   O320      0.70180  1_556   S
    C194   O321      0.70002      .   S
    C192   O321      0.70002      .   S
    C194   O322      0.75347      .   S
    C197   O322      0.75347  1_655   S
    C194   O323      0.70174      .   S
    C184   O323      0.70174  1_556   S
    C253   O324      0.70116      .   S
    C251   O324      0.70116      .   S
    C253   O325      0.75076      .   S
    C199   O325      0.75076  1_545   S
    C253   O326      0.69091      .   S
    C255   O326      0.69091  1_546   S
    C173   O327      0.70116      .   S
    C171   O327      0.70116      .   S
    C173   O328      0.75086      .   S
    C247   O328      0.75086      .   S
    C173   O329      0.70061      .   S
    C175   O329      0.70061  1_556   S
    C252   O330      0.70116      .   S
    C250   O330      0.70116      .   S
    C252   O331      0.75085      .   S
    C198   O331      0.75085  1_545   S
    C252   O332      0.69075      .   S
    C254   O332      0.69075  1_546   S
    C172   O333      0.70112      .   S
    C170   O333      0.70112      .   S
    C172   O334      0.75082      .   S
    C246   O334      0.75082      .   S
    C172   O335      0.70061      .   S
    C174   O335      0.70061  1_556   S
    C241   O336      0.54503      .   S
    C111   O336      0.54503      .   S
    C193   O337      0.54530      .   S
    C63    O337      0.54530      .   S
    C240   O338      0.54508      .   S
    C110   O338      0.54508      .   S
    C192   O339      0.54504      .   S
    C62    O339      0.54504      .   S
    C251   O340      0.54571      .   S
    C123   O340      0.54571      .   S
    C171   O341      0.54583      .   S
    C43    O341      0.54583      .   S
    C170   O342      0.54641      .   S
    C42    O342      0.54641      .   S
    C250   O343      0.54604      .   S
    C122   O343      0.54604      .   S
    C64    O344      0.54893      .   S
    C196   O344      0.54893      .   S
    C113   O345      0.54901      .   S
    C245   O345      0.54901      .   S
    C112   O346      0.54893      .   S
    C244   O346      0.54893      .   S
    C65    O347      0.54891      .   S
    C197   O347      0.54891      .   S
    C71    O348      0.54854      .   S
    C199   O348      0.54854      .   S
    C70    O349      0.54856      .   S
    C198   O349      0.54856      .   S
    C119   O350      0.54853      .   S
    C247   O350      0.54853      .   S
    C118   O351      0.54855      .   S
    C246   O351      0.54855      .   S
    C196   O352      0.55188      .   S
    C67    O352      0.55188      .   S
    C196   O353      0.91703      .   S
    C270   O353      0.91703      .   S
    C245   O354      0.55191      .   S
    C115   O354      0.55191      .   S
    C245   O355      0.91755      .   S
    C277   O355      0.91755      .   S
    C244   O356      0.55189      .   S
    C114   O356      0.55189      .   S
    C244   O357      0.91746      .   S
    C276   O357      0.91746      .   S
    C197   O358      0.55201  1_655   S
    C66    O358      0.55201      .   S
    C197   O359      0.91744      .   S
    C271   O359      0.91744      .   S
    C199   O360      0.55000  1_545   S
    C69    O360      0.55000      .   S
    C199   O361      0.92224      .   S
    C271   O361      0.92224      .   S
    C198   O362      0.54994  1_545   S
    C68    O362      0.54994      .   S
    C198   O363      0.92167      .   S
    C270   O363      0.92167      .   S
    C247   O364      0.55003      .   S
    C117   O364      0.55003      .   S
    C247   O365      0.92212      .   S
    C277   O365      0.92212      .   S
    C246   O366      0.55006      .   S
    C116   O366      0.55006      .   S
    C246   O367      0.92220      .   S
    C276   O367      0.92220      .   S
    C270   O368      1.14502      .   S
    C6     O368      1.14502      .   S
    C277   O369      1.14445      .   S
    C1     O369      1.14445      .   S
    C271   O370      1.14442      .   S
    C7     O370      1.14442      .   S
    C276   O371      1.14389      .   S
    C0     O371      1.14389      .   S
    C286   O372      1.25973      .   S
    C0     O372      1.25973      .   S
    C281   O373      1.25932      .   S
    C7     O373      1.25932      .   S
    C280   O374      1.25962      .   S
    C6     O374      1.25962      .   S
    C1     O375      1.25957      .   S
    C287   O375      1.25957      .   S
    C1     O376      1.14446      .   S
    C265   O376      1.14446      .   S
    C0     O377      1.14389      .   S
    C264   O377      1.14389      .   S
    C6     O378      1.13949      .   S
    C274   O378      1.13949      .   S
    C7     O379      1.14442      .   S
    C275   O379      1.14442      .   S
    C274   O380      0.92556      .   S
    C230   O380      0.92556      .   S
    C274   O381      0.92123      .   S
    C228   O381      0.92123      .   S
    C264   O382      0.92221      .   S
    C150   O382      0.92221      .   S
    C264   O383      0.91746      .   S
    C148   O383      0.91746      .   S
    C275   O384      0.92224      .   S
    C231   O384      0.92224      .   S
    C275   O385      0.91744      .   S
    C229   O385      0.91744      .   S
    C265   O386      0.92212      .   S
    C151   O386      0.92212      .   S
    C265   O387      0.91755      .   S
    C149   O387      0.91755      .   S
    C20    O388      0.55006      .   S
    C150   O388      0.55006      .   S
    C21    O389      0.55003      .   S
    C151   O389      0.55003      .   S
    C100   O390      0.54994      .   S
    C230   O390      0.54994  1_545   S
    C101   O391      0.55001      .   S
    C231   O391      0.55001  1_545   S
    C98    O392      0.55201      .   S
    C229   O392      0.55201  1_655   S
    C18    O393      0.55189      .   S
    C148   O393      0.55189      .   S
    C19    O394      0.55191      .   S
    C149   O394      0.55191      .   S
    C99    O395      0.55188      .   S
    C228   O395      0.55188      .   S
    C150   O396      0.54855      .   S
    C22    O396      0.54855      .   S
    C150   O397      0.75082      .   S
    C204   O397      0.75082      .   S
    C151   O398      0.54838      .   S
    C23    O398      0.54838      .   S
    C151   O399      0.75086      .   S
    C205   O399      0.75086      .   S
    C230   O400      0.54856      .   S
    C102   O400      0.54856      .   S
    C230   O401      0.75085  1_545   S
    C156   O401      0.75085      .   S
    C231   O402      0.54854      .   S
    C103   O402      0.54854      .   S
    C231   O403      0.75076  1_545   S
    C157   O403      0.75076      .   S
    C229   O404      0.54892      .   S
    C97    O404      0.54892      .   S
    C229   O405      0.75346  1_655   S
    C226   O405      0.75346      .   S
    C148   O406      0.54894      .   S
    C16    O406      0.54894      .   S
    C148   O407      0.75334      .   S
    C146   O407      0.75334      .   S
    C149   O408      0.54877      .   S
    C17    O408      0.54877      .   S
    C149   O409      0.75336      .   S
    C147   O409      0.75336      .   S
    C228   O410      0.54893      .   S
    C96    O410      0.54893      .   S
    C228   O411      0.75341      .   S
    C227   O411      0.75341      .   S
    C26    O412      0.54604      .   S
    C154   O412      0.54604      .   S
    C74    O413      0.54567      .   S
    C202   O413      0.54567      .   S
    C75    O414      0.54593      .   S
    C203   O414      0.54593      .   S
    C27    O415      0.54590      .   S
    C155   O415      0.54590      .   S
    C94    O416      0.54504      .   S
    C224   O416      0.54504      .   S
    C14    O417      0.54509      .   S
    C144   O417      0.54509      .   S
    C95    O418      0.54456      .   S
    C225   O418      0.54456      .   S
    C15    O419      0.54503      .   S
    C145   O419      0.54503      .   S
    C202   O420      0.70118      .   S
    C204   O420      0.70118      .   S
    C202   O421      0.69818      .   S
    C200   O421      0.69818      .   S
    C154   O422      0.70115      .   S
    C156   O422      0.70115      .   S
    C154   O423      0.69786      .   S
    C152   O423      0.69786      .   S
    C203   O424      0.70116      .   S
    C205   O424      0.70116      .   S
    C203   O425      0.69794      .   S
    C201   O425      0.69794      .   S
    C155   O426      0.70115      .   S
    C157   O426      0.70115      .   S
    C155   O427      0.69799      .   S
    C153   O427      0.69799      .   S
    C224   O428      0.70002      .   S
    C226   O428      0.70002      .   S
    C224   O429      0.69512      .   S
    C222   O429      0.69512  1_565   S
    C225   O430      0.70008      .   S
    C227   O430      0.70008      .   S
    C225   O431      0.69557      .   S
    C223   O431      0.69557  1_565   S
    C144   O432      0.70003      .   S
    C146   O432      0.70003      .   S
    C144   O433      0.69510      .   S
    C142   O433      0.69510      .   S
    C145   O434      0.70003      .   S
    C147   O434      0.70003      .   S
    C145   O435      0.69512      .   S
    C143   O435      0.69512      .   S
    C204   O436      0.70043      .   S
    C206   O436      0.70043      .   S
    C156   O437      0.69056      .   S
    C158   O437      0.69056  1_545   S
    C205   O438      0.70042      .   S
    C207   O438      0.70042      .   S
    C157   O439      0.69072      .   S
    C159   O439      0.69072  1_545   S
    C226   O440      0.70145      .   S
    C216   O440      0.70145      .   S
    C146   O441      0.70161      .   S
    C136   O441      0.70161      .   S
    C227   O442      0.70166      .   S
    C217   O442      0.70166      .   S
    C147   O443      0.70171      .   S
    C137   O443      0.70171      .   S
    C25    O444      0.54572      .   S
    C152   O444      0.54572      .   S
    C72    O445      0.54571      .   S
    C200   O445      0.54571      .   S
    C73    O446      0.54572      .   S
    C201   O446      0.54572      .   S
    C24    O447      0.54586  1_455   S
    C153   O447      0.54586      .   S
    C92    O448      0.54446      .   S
    C222   O448      0.54446      .   S
    C12    O449      0.54464      .   S
    C142   O449      0.54464      .   S
    C93    O450      0.54447      .   S
    C223   O450      0.54447      .   S
    C13    O451      0.54461      .   S
    C143   O451      0.54461      .   S
    C152   O452      0.70166      .   S
    C162   O452      0.70166      .   S
    C200   O453      0.70170      .   S
    C210   O453      0.70170      .   S
    C201   O454      0.70160      .   S
    C211   O454      0.70160      .   S
    C153   O455      0.70155      .   S
    C163   O455      0.70155      .   S
    C222   O456      0.70047  1_565   S
    C220   O456      0.70047      .   S
    C142   O457      0.70042      .   S
    C140   O457      0.70042      .   S
    C223   O458      0.70041  1_565   S
    C221   O458      0.70041      .   S
    C143   O459      0.70043      .   S
    C141   O459      0.70043      .   S
    C206   O460      0.54455      .   S
    C76    O460      0.54455      .   S
    C206   O461      0.69513      .   S
    C208   O461      0.69513      .   S
    C158   O462      0.56672      .   S
    C28    O462      0.56672      .   S
    C158   O463      0.68466  1_545   S
    C160   O463      0.68466      .   S
    C207   O464      0.54459      .   S
    C77    O464      0.54459      .   S
    C207   O465      0.69510      .   S
    C209   O465      0.69510      .   S
    C159   O466      0.56641      .   S
    C29    O466      0.56641      .   S
    C159   O467      0.68476  1_545   S
    C161   O467      0.68476      .   S
    C216   O468      0.54587      .   S
    C89    O468      0.54587  1_655   S
    C216   O469      0.69807      .   S
    C218   O469      0.69807      .   S
    C136   O470      0.54572      .   S
    C8     O470      0.54572      .   S
    C136   O471      0.69794      .   S
    C138   O471      0.69794      .   S
    C137   O472      0.54563      .   S
    C9     O472      0.54563      .   S
    C137   O473      0.69760      .   S
    C139   O473      0.69760      .   S
    C217   O474      0.54572      .   S
    C88    O474      0.54572      .   S
    C217   O475      0.69786      .   S
    C219   O475      0.69786      .   S
    C162   O476      0.70004      .   S
    C160   O476      0.70004      .   S
    C162   O477      0.75341      .   S
    C165   O477      0.75341      .   S
    C210   O478      0.70003      .   S
    C208   O478      0.70003      .   S
    C210   O479      0.75303      .   S
    C212   O479      0.75303      .   S
    C211   O480      0.70003      .   S
    C209   O480      0.70003      .   S
    C211   O481      0.75334      .   S
    C213   O481      0.75334      .   S
    C163   O482      0.70002      .   S
    C161   O482      0.70002      .   S
    C163   O483      0.75346      .   S
    C164   O483      0.75346  1_455   S
    C220   O484      0.70116      .   S
    C218   O484      0.70116      .   S
    C220   O485      0.75059      .   S
    C166   O485      0.75059  1_565   S
    C140   O486      0.70116      .   S
    C138   O486      0.70116      .   S
    C140   O487      0.75086      .   S
    C214   O487      0.75086      .   S
    C221   O488      0.70116      .   S
    C219   O488      0.70116      .   S
    C221   O489      0.75085      .   S
    C167   O489      0.75085  1_565   S
    C141   O490      0.70113      .   S
    C139   O490      0.70113      .   S
    C141   O491      0.75081      .   S
    C215   O491      0.75081      .   S
    C208   O492      0.54503      .   S
    C78    O492      0.54503      .   S
    C160   O493      0.54502      .   S
    C30    O493      0.54502      .   S
    C209   O494      0.54508      .   S
    C79    O494      0.54508      .   S
    C161   O495      0.54504      .   S
    C31    O495      0.54504      .   S
    C218   O496      0.54580      .   S
    C90    O496      0.54580      .   S
    C138   O497      0.54593      .   S
    C10    O497      0.54593      .   S
    C139   O498      0.54632      .   S
    C11    O498      0.54632      .   S
    C219   O499      0.54604      .   S
    C91    O499      0.54604      .   S
    C33    O500      0.54893      .   S
    C165   O500      0.54893      .   S
    C80    O501      0.54877      .   S
    C212   O501      0.54877      .   S
    C81    O502      0.54893      .   S
    C213   O502      0.54893      .   S
    C32    O503      0.54891      .   S
    C164   O503      0.54891      .   S
    C87    O504      0.55061      .   S
    C215   O504      0.55061      .   S
    C38    O505      0.54848      .   S
    C166   O505      0.54848      .   S
    C39    O506      0.54856      .   S
    C167   O506      0.54856      .   S
    C86    O507      0.54853      .   S
    C214   O507      0.54853      .   S
    C212   O508      0.55217      .   S
    C82    O508      0.55217      .   S
    C212   O509      0.91779      .   S
    C272   O509      0.91779      .   S
    C165   O510      0.55188      .   S
    C34    O510      0.55188      .   S
    C165   O511      0.91758      .   S
    C267   O511      0.91758      .   S
    C213   O512      0.55189      .   S
    C83    O512      0.55189      .   S
    C213   O513      0.91746      .   S
    C273   O513      0.91746      .   S
    C164   O514      0.55201  1_455   S
    C35    O514      0.55201      .   S
    C164   O515      0.91504      .   S
    C266   O515      0.91504      .   S
    C166   O516      0.55015  1_565   S
    C36    O516      0.55015      .   S
    C166   O517      0.92013      .   S
    C266   O517      0.92013      .   S
    C167   O518      0.54994  1_565   S
    C37    O518      0.54994      .   S
    C167   O519      0.92219      .   S
    C267   O519      0.92219      .   S
    C214   O520      0.54962      .   S
    C84    O520      0.54962      .   S
    C214   O521      0.92212      .   S
    C272   O521      0.92212      .   S
    C215   O522      0.55006      .   S
    C85    O522      0.55006      .   S
    C215   O523      0.92221      .   S
    C273   O523      0.92221      .   S
    C266   O524      1.14761      .   S
    C2     O524      1.14761      .   S
    C272   O525      1.14445      .   S
    C4     O525      1.14445      .   S
    C267   O526      1.14429      .   S
    C3     O526      1.14429      .   S
    C273   O527      1.14389      .   S
    C5     O527      1.14389      .   S
    C2     O528      1.25931      .   S
    C284   O528      1.25931      .   S
    C2     O529      1.14442      .   S
    C278   O529      1.14442      .   S
    C5     O530      1.25973      .   S
    C283   O530      1.25973      .   S
    C5     O531      1.14389      .   S
    C269   O531      1.14389      .   S
    C4     O532      1.25957      .   S
    C282   O532      1.25957      .   S
    C4     O533      1.14445      .   S
    C268   O533      1.14445      .   S
    C3     O534      1.25962      .   S
    C285   O534      1.25962      .   S
    C3     O535      1.14364      .   S
    C279   O535      1.14364      .   S
    C279   O536      0.92264      .   S
    C263   O536      0.92264      .   S
    C279   O537      0.91807      .   S
    C261   O537      0.91807      .   S
    C269   O538      0.92221      .   S
    C183   O538      0.92221      .   S
    C269   O539      0.91201      .   S
    C181   O539      0.91201      .   S
    C278   O540      0.92224      .   S
    C262   O540      0.92224      .   S
    C278   O541      0.91743      .   S
    C260   O541      0.91743      .   S
    C268   O542      0.92212      .   S
    C182   O542      0.92212      .   S
    C268   O543      0.91756      .   S
    C180   O543      0.91756      .   S
    C53    O544      0.55006      .   S
    C183   O544      0.55006      .   S
    C52    O545      0.55003      .   S
    C182   O545      0.55003      .   S
    C133   O546      0.54994      .   S
    C263   O546      0.54994  1_565   S
    C132   O547      0.55000      .   S
    C262   O547      0.55000  1_565   S
    C131   O548      0.55201      .   S
    C260   O548      0.55201  1_455   S
    C51    O549      0.54632      .   S
    C181   O549      0.54632      .   S
    C50    O550      0.55190      .   S
    C180   O550      0.55190      .   S
    C130   O551      0.55189      .   S
    C261   O551      0.55189      .   S
    C183   O552      0.54855      .   S
    C55    O552      0.54855      .   S
    C183   O553      0.75081      .   S
    C237   O553      0.75081      .   S
    C182   O554      0.54840      .   S
    C54    O554      0.54840      .   S
    C182   O555      0.75086      .   S
    C236   O555      0.75086      .   S
    C263   O556      0.54856      .   S
    C135   O556      0.54856      .   S
    C263   O557      0.75086  1_565   S
    C189   O557      0.75086      .   S
    C262   O558      0.54853      .   S
    C134   O558      0.54853      .   S
    C262   O559      0.75076  1_565   S
    C188   O559      0.75076      .   S
    C181   O560      0.55163      .   S
    C49    O560      0.55163      .   S
    C181   O561      0.76064      .   S
    C179   O561      0.76064      .   S
    C260   O562      0.54891      .   S
    C128   O562      0.54891      .   S
    C260   O563      0.75347  1_455   S
    C259   O563      0.75347      .   S
    C180   O564      0.54880      .   S
    C48    O564      0.54880      .   S
    C180   O565      0.75335      .   S
    C178   O565      0.75335      .   S
    C261   O566      0.54893      .   S
    C129   O566      0.54893      .   S
    C261   O567      0.75341      .   S
    C258   O567      0.75341      .   S
    C59    O568      0.54604      .   S
    C187   O568      0.54604      .   S
    C107   O569      0.54604      .   S
    C235   O569      0.54604      .   S
    C106   O570      0.54592      .   S
    C234   O570      0.54592      .   S
    C58    O571      0.54590      .   S
    C186   O571      0.54590      .   S
    C127   O572      0.54504      .   S
    C257   O572      0.54504      .   S
    C47    O573      0.54508      .   S
    C177   O573      0.54508      .   S
    C126   O574      0.54465      .   S
    C256   O574      0.54465      .   S
    C46    O575      0.54503      .   S
    C176   O575      0.54503      .   S
    C235   O576      0.70115      .   S
    C237   O576      0.70115      .   S
    C235   O577      0.69726      .   S
    C233   O577      0.69726      .   S
    C187   O578      0.70115      .   S
    C189   O578      0.70115      .   S
    C187   O579      0.69786      .   S
    C185   O579      0.69786      .   S
    C234   O580      0.70116      .   S
    C236   O580      0.70116      .   S
    C234   O581      0.69794      .   S
    C232   O581      0.69794      .   S
    C186   O582      0.70116      .   S
    C188   O582      0.70116      .   S
    C186   O583      0.69799      .   S
    C184   O583      0.69799      .   S
    C257   O584      0.70002      .   S
    C259   O584      0.70002      .   S
    C257   O585      0.68476      .   S
    C255   O585      0.68476  1_545   S
    C177   O586      0.70003      .   S
    C179   O586      0.70003      .   S
    C177   O587      0.69510      .   S
    C175   O587      0.69510      .   S
    C256   O588      0.70007      .   S
    C258   O588      0.70007      .   S
    C256   O589      0.68499      .   S
    C254   O589      0.68499  1_545   S
    C176   O590      0.70004      .   S
    C178   O590      0.70004      .   S
    C176   O591      0.69513      .   S
    C174   O591      0.69513      .   S
    C56    O592      0.54573      .   S
    C185   O592      0.54573      .   S
    C105   O593      0.54563      .   S
    C233   O593      0.54563      .   S
    C104   O594      0.54572      .   S
    C232   O594      0.54572      .   S
    C57    O595      0.54586  1_655   S
    C184   O595      0.54586      .   S
    C125   O596      0.56641      .   S
    C255   O596      0.56641      .   S
    C45    O597      0.54464      .   S
    C175   O597      0.54464      .   S
    C124   O598      0.56673      .   S
    C254   O598      0.56673      .   S
    C44    O599      0.54457      .   S
    C174   O599      0.54457      .   S
