# CIF file generated by openbabel 2.4.90, see http://openbabel.sf.net
data_I
_chemical_name_common ''
_cell_length_a 14.364
_cell_length_b 12.417
_cell_length_c 20.761
_cell_angle_alpha 90
_cell_angle_beta 90
_cell_angle_gamma 90.051
_space_group_name_H-M_alt 'P 1'
_space_group_name_Hall 'P 1'
loop_
    _symmetry_equiv_pos_as_xyz
    x,y,z
loop_
    _atom_site_label
    _atom_site_type_symbol
    _atom_site_fract_x
    _atom_site_fract_y
    _atom_site_fract_z
    _atom_site_occupancy
    N0      N    0.24985   0.50008   0.49993   1.000
    N1      N    0.75012   0.49994   0.50001   1.000
    N2      N    0.99998   0.99989   0.49997   1.000
    N3      N    0.49998   0.99989   0.49997   1.000
    N4      N    0.24985   0.50008   0.00003   1.000
    N5      N    0.75012   0.49994   0.99990   1.000
    N6      N    0.49998   0.99989   0.99998   1.000
    N7      N    0.99998   0.99989   0.99998   1.000
    Zr8     Zr   0.16205   0.24174   0.24999   1.000
    O9      O    0.18254   0.34046   0.17668   1.000
    O10     O    0.18254   0.34046   0.32329   1.000
    Zr11    Zr   0.91197   0.25806   0.24999   1.000
    O12     O    0.93249   0.15940   0.17666   1.000
    O13     O    0.93249   0.15940   0.32331   1.000
    Zr14    Zr   0.08799   0.74196   0.74998   1.000
    O15     O    0.06748   0.84057   0.82330   1.000
    O16     O    0.06748   0.84056   0.67661   1.000
    Zr17    Zr   0.58787   0.74173   0.74998   1.000
    O18     O    0.56737   0.84039   0.82329   1.000
    O19     O    0.56737   0.84039   0.67665   1.000
    Zr20    Zr   0.33796   0.75833   0.74998   1.000
    O21     O    0.31735   0.65965   0.82332   1.000
    O22     O    0.31735   0.65965   0.67664   1.000
    Zr23    Zr   0.83791   0.75829   0.74998   1.000
    O24     O    0.81743   0.65957   0.82328   1.000
    O25     O    0.81743   0.65957   0.67667   1.000
    Zr26    Zr   0.41210   0.25829   0.24999   1.000
    O27     O    0.43260   0.15957   0.17665   1.000
    O28     O    0.43260   0.15957   0.32324   1.000
    Zr29    Zr   0.66201   0.24170   0.24999   1.000
    O30     O    0.68262   0.34037   0.17664   1.000
    O31     O    0.68262   0.34037   0.32332   1.000
loop_
    _geom_bond_atom_site_label_1
    _geom_bond_atom_site_label_2
    _geom_bond_distance
    _geom_bond_site_symmetry_2
    _ccdc_geom_bond_type
    Zr8    O9        1.97602      .   S
    N4     O9        4.27904      .   S
    Zr8    O10       1.97593      .   S
    N0     O10       4.27877      .   S
    Zr11   O12       1.97632      .   S
    N7     O12       4.28030  1_566   S
    Zr11   O13       1.97623      .   S
    N2     O13       4.27998  1_565   S
    Zr14   O15       1.97585      .   S
    N7     O15       4.27923  1_655   S
    Zr14   O16       1.97664      .   S
    N2     O16       4.27841  1_655   S
    Zr17   O18       1.97606      .   S
    N6     O18       4.27993      .   S
    Zr17   O19       1.97628      .   S
    N3     O19       4.27997      .   S
    Zr20   O21       1.97650      .   S
    N4     O21       4.28045  1_554   S
    Zr20   O22       1.97650      .   S
    N0     O22       4.28046      .   S
    Zr23   O24       1.97587      .   S
    N5     O24       4.27854      .   S
    Zr23   O25       1.97608      .   S
    N1     O25       4.27926      .   S
    Zr26   O27       1.97693      .   S
    N6     O27       4.28080  1_566   S
    Zr26   O28       1.97542      .   S
    N3     O28       4.28183  1_565   S
    Zr29   O30       1.97665      .   S
    N5     O30       4.28096  1_556   S
    Zr29   O31       1.97635      .   S
    N1     O31       4.27996      .   S
