# CIF file generated by openbabel 2.4.90, see http://openbabel.sf.net
data_I
_chemical_name_common ''
_cell_length_a 14.364
_cell_length_b 12.417
_cell_length_c 20.761
_cell_angle_alpha 90
_cell_angle_beta 90
_cell_angle_gamma 90.051
_space_group_name_H-M_alt 'P 1'
_space_group_name_Hall 'P 1'
loop_
    _symmetry_equiv_pos_as_xyz
    x,y,z
loop_
    _atom_site_label
    _atom_site_type_symbol
    _atom_site_fract_x
    _atom_site_fract_y
    _atom_site_fract_z
    _atom_site_occupancy
    Zr0     Zr   0.12528   0.33380   0.24999   1.000
    Zr1     Zr   0.62533   0.33380   0.24999   1.000
    Zr2     Zr   0.12485   0.83402   0.74998   1.000
    Zr3     Zr   0.62468   0.83384   0.74998   1.000
    Zr4     Zr   0.37464   0.66623   0.74998   1.000
    Zr5     Zr   0.87469   0.66622   0.74998   1.000
    Zr6     Zr   0.37529   0.16618   0.24999   1.000
    Zr7     Zr   0.87512   0.16600   0.24999   1.000
    Zr8     Zr   0.44891   0.35040   0.24999   1.000
    Zr9     Zr   0.94883   0.35013   0.24999   1.000
    Zr10    Zr   0.30128   0.85043   0.74998   1.000
    Zr11    Zr   0.80114   0.85035   0.74998   1.000
    Zr12    Zr   0.05114   0.64990   0.74998   1.000
    Zr13    Zr   0.55106   0.64962   0.74998   1.000
    Zr14    Zr   0.19883   0.14967   0.24999   1.000
    Zr15    Zr   0.69869   0.14960   0.24999   1.000
    O16     O    0.16205   0.24174   0.24999   1.000
    O17     O    0.91197   0.25806   0.24999   1.000
    O18     O    0.41210   0.25829   0.24999   1.000
    O19     O    0.66201   0.24170   0.24999   1.000
    O20     O    0.08799   0.74196   0.74998   1.000
    O21     O    0.83791   0.75829   0.74998   1.000
    O22     O    0.33796   0.75833   0.74998   1.000
    O23     O    0.58787   0.74173   0.74998   1.000
    N24     N    0.24985   0.50008   0.49993   1.000
    O25     O    0.20303   0.43917   0.39659   1.000
    O26     O    0.29673   0.56098   0.60330   1.000
    N27     N    0.75012   0.49994   0.50001   1.000
    O28     O    0.70324   0.43904   0.39665   1.000
    O29     O    0.79694   0.56085   0.60336   1.000
    N30     N    0.99998   0.99989   0.49997   1.000
    O31     O    0.04697   0.93917   0.60323   1.000
    O32     O    0.95300   0.06073   0.39663   1.000
    N33     N    0.49998   0.99989   0.49997   1.000
    O34     O    0.54686   0.93905   0.60332   1.000
    O35     O    0.45310   0.06086   0.39648   1.000
    N36     N    0.24985   0.50008   0.00003   1.000
    O37     O    0.29673   0.56098   0.89666   1.000
    O38     O    0.20303   0.43917   0.10338   1.000
    N39     N    0.75012   0.49994   0.99990   1.000
    O40     O    0.79694   0.56085   0.89657   1.000
    O41     O    0.70324   0.43904   0.10329   1.000
    N42     N    0.49998   0.99989   0.99998   1.000
    O43     O    0.45310   0.06086   0.10331   1.000
    O44     O    0.54686   0.93905   0.89661   1.000
    N45     N    0.99998   0.99989   0.99998   1.000
    O46     O    0.95300   0.06073   0.10334   1.000
    O47     O    0.04697   0.93917   0.89663   1.000
loop_
    _geom_bond_atom_site_label_1
    _geom_bond_atom_site_label_2
    _geom_bond_distance
    _geom_bond_site_symmetry_2
    _ccdc_geom_bond_type
    Zr14   O16       1.25973      .   S
    Zr0    O16       1.25973      .   S
    Zr9    O17       1.25932      .   S
    Zr7    O17       1.25932      .   S
    Zr8    O18       1.25962      .   S
    Zr6    O18       1.25962      .   S
    Zr1    O19       1.25957      .   S
    Zr15   O19       1.25957      .   S
    Zr2    O20       1.25931      .   S
    Zr12   O20       1.25931      .   S
    Zr5    O21       1.25973      .   S
    Zr11   O21       1.25973      .   S
    Zr4    O22       1.25957      .   S
    Zr10   O22       1.25957      .   S
    Zr3    O23       1.25962      .   S
    Zr13   O23       1.25962      .   S
    N24    O25       2.37190      .   S
    Zr0    O25       3.49567      .   S
    N24    O26       2.37284      .   S
    Zr4    O26       3.49729      .   S
    N27    O28       2.37249      .   S
    Zr1    O28       3.49695      .   S
    N27    O29       2.37225      .   S
    Zr5    O29       3.49601      .   S
    N30    O31       2.37076  1_655   S
    Zr2    O31       3.49870      .   S
    N30    O32       2.37284  1_565   S
    Zr7    O32       3.49727      .   S
    N33    O34       2.37267      .   S
    Zr3    O34       3.49698      .   S
    N33    O35       2.37557  1_565   S
    Zr6    O35       3.49454      .   S
    N36    O37       2.37283  1_554   S
    Zr4    O37       3.49728      .   S
    N36    O38       2.37209      .   S
    Zr0    O38       3.49586      .   S
    N39    O40       2.37174      .   S
    Zr5    O40       3.49552      .   S
    N39    O41       2.37319  1_556   S
    Zr1    O41       3.49762      .   S
    N42    O43       2.37272  1_566   S
    Zr6    O43       3.49794      .   S
    N42    O44       2.37290      .   S
    Zr3    O44       3.49647      .   S
    N45    O46       2.37306  1_566   S
    Zr7    O46       3.49749      .   S
    N45    O47       2.37256  1_655   S
    Zr2    O47       3.49690      .   S
