# CIF file generated by openbabel 2.4.90, see http://openbabel.sf.net
data_I
_chemical_name_common ''
_cell_length_a 8.8355
_cell_length_b 8.8355
_cell_length_c 13.703
_cell_angle_alpha 95.653
_cell_angle_beta 95.661
_cell_angle_gamma 92.63
_space_group_name_H-M_alt 'P 1'
_space_group_name_Hall 'P 1'
loop_
    _symmetry_equiv_pos_as_xyz
    x,y,z
loop_
    _atom_site_label
    _atom_site_type_symbol
    _atom_site_fract_x
    _atom_site_fract_y
    _atom_site_fract_z
    _atom_site_occupancy
    Lv0     Lv   0.72202   0.27086   0.46266   1.000
    Lv1     Lv   0.47182   0.52819   0.24999   1.000
    Lv2     Lv   0.52811   0.47177   0.75002   1.000
    Lv3     Lv   0.54591   0.95740   0.77869   1.000
    Lv4     Lv   0.76394   0.73298   0.55261   1.000
    Lv5     Lv   0.23597   0.26697   0.44740   1.000
    Lv6     Lv   0.04247   0.45394   0.72131   1.000
    Lv7     Lv   0.73297   0.76392   0.05259   1.000
    Lv8     Lv   0.95745   0.54600   0.27870   1.000
    Lv9     Lv   0.27789   0.72909   0.53735   1.000
    Lv10    Lv   0.27077   0.72205   0.96262   1.000
    Lv11    Lv   0.45399   0.04255   0.22132   1.000
    Lv12    Lv   0.26694   0.23603   0.94742   1.000
    Lv13    Lv   0.72914   0.27790   0.03739   1.000
