# CIF file generated by openbabel 2.4.90, see http://openbabel.sf.net
data_I
_chemical_name_common ''
_cell_length_a 8.8355
_cell_length_b 8.8355
_cell_length_c 13.703
_cell_angle_alpha 95.653
_cell_angle_beta 95.661
_cell_angle_gamma 92.63
_space_group_name_H-M_alt 'P 1'
_space_group_name_Hall 'P 1'
loop_
    _symmetry_equiv_pos_as_xyz
    x,y,z
loop_
    _atom_site_label
    _atom_site_type_symbol
    _atom_site_fract_x
    _atom_site_fract_y
    _atom_site_fract_z
    _atom_site_occupancy
    Ca0     Ca   0.84849   0.52437   0.10364   1.000
    Ca1     Ca   0.52433   0.84846   0.60363   1.000
    Ca2     Ca   0.15144   0.47558   0.89637   1.000
    Fe3     Fe   0.99997   0.49998   0.50001   1.000
    Fe4     Fe   0.49995   0.99996   0.00000   1.000
    H5      H    0.31567   0.10423   0.55807   1.000
    H6      H    0.47319   0.18362   0.61407   1.000
    H7      H    0.89579   0.68429   0.94188   1.000
    H8      H    0.81632   0.52675   0.88596   1.000
    H9      H    0.68427   0.89575   0.44194   1.000
    H10     H    0.52675   0.81636   0.38594   1.000
    Ca11    Ca   0.47559   0.15150   0.39638   1.000
    H12     H    0.10415   0.31569   0.05813   1.000
    H13     H    0.18362   0.47323   0.11405   1.000
    C14     C    0.83306   0.35387   0.47746   1.000
    C15     C    0.97499   0.53089   0.36414   1.000
    C16     C    0.14122   0.35158   0.46909   1.000
    C17     C    0.64608   0.16688   0.02257   1.000
    C18     C    0.46907   0.02497   0.13587   1.000
    C19     C    0.64838   0.85871   0.03091   1.000
    C20     C    0.16685   0.64608   0.52255   1.000
    C21     C    0.02492   0.46905   0.63587   1.000
    C22     C    0.85869   0.64837   0.53092   1.000
    C23     C    0.35383   0.83307   0.97745   1.000
    C24     C    0.53083   0.97498   0.86414   1.000
    C25     C    0.35153   0.14124   0.96911   1.000
    N26     N    0.72202   0.27086   0.46266   1.000
    N27     N    0.72914   0.27790   0.03739   1.000
    N28     N    0.27789   0.72909   0.53735   1.000
    N29     N    0.27077   0.72205   0.96262   1.000
    O30     O    0.42503   0.08810   0.56639   1.000
    O31     O    0.91188   0.57492   0.93361   1.000
    O32     O    0.57491   0.91188   0.43363   1.000
    O33     O    0.08806   0.42506   0.06640   1.000
loop_
    _geom_bond_atom_site_label_1
    _geom_bond_atom_site_label_2
    _geom_bond_distance
    _geom_bond_site_symmetry_2
    _ccdc_geom_bond_type
    Fe4    C17       1.89591  1_565   S
    Fe4    C19       1.89782      .   S
    Fe4    C18       1.90119  1_565   S
    Fe4    C24       1.90104  1_554   S
    Fe4    C25       1.89785  1_564   S
    Fe4    C23       1.89569  1_554   S
    C17    N27       1.18623      .   S
    N27    Ca0       2.42681      .   S
    H12    O33       0.98033      .   S
    O33    H13       1.06012      .   S
    C15    Fe3       1.90104      .   S
    H10    O32       1.06012      .   S
    Ca11   N26       2.42656      .   S
    O32    H9        0.98035      .   S
    N26    C14       1.18622      .   S
    C16    Fe3       1.89772  1_455   S
    C14    Fe3       1.89566      .   S
    Fe3    C20       1.89549  1_655   S
    Fe3    C22       1.89785      .   S
    Fe3    C21       1.90104  1_655   S
    C20    N28       1.18621      .   S
    N28    Ca1       2.42662      .   S
    H5     O30       0.98036      .   S
    O30    H6        1.06014      .   S
    H8     O31       1.06010      .   S
    Ca2    N29       2.42676      .   S
    O31    H7        0.98033      .   S
    N29    C23       1.18623      .   S
    O30    Ca11      2.52584      .   S
    O30    Ca1       2.40999  1_545   S
    O31    Ca0       2.52609  1_556   S
    O31    Ca2       2.40960  1_655   S
    O32    Ca11      2.40997  1_565   S
    O32    Ca1       2.52593      .   S
    O33    Ca0       2.40963  1_455   S
    O33    Ca2       2.52602  1_554   S
