# CIF file generated by openbabel 2.4.90, see http://openbabel.sf.net
data_I
_chemical_name_common ''
_cell_length_a 16.152
_cell_length_b 16.386
_cell_length_c 17.297
_cell_angle_alpha 89.875
_cell_angle_beta 103.749
_cell_angle_gamma 90.013
_space_group_name_H-M_alt 'P 1'
_space_group_name_Hall 'P 1'
loop_
    _symmetry_equiv_pos_as_xyz
    x,y,z
loop_
    _atom_site_label
    _atom_site_type_symbol
    _atom_site_fract_x
    _atom_site_fract_y
    _atom_site_fract_z
    _atom_site_occupancy
    Zn0     Zn   0.94858   0.98950   0.17434   1.000
    Zn1     Zn   0.86458   0.54171   0.43691   1.000
    Zn2     Zn   0.55096   0.48970   0.82359   1.000
    Zn3     Zn   0.36481   0.95850   0.43964   1.000
    Zn4     Zn   0.04937   0.01042   0.82330   1.000
    Zn5     Zn   0.13513   0.45837   0.55988   1.000
    Zn6     Zn   0.44806   0.51019   0.17398   1.000
    Zn7     Zn   0.00001   0.00028   0.99967   1.000
    Zn8     Zn   0.49996   0.50005   0.99957   1.000
    Zn9     Zn   0.63525   0.04147   0.55990   1.000
