# CIF file generated by openbabel 2.4.90, see http://openbabel.sf.net
data_I
_chemical_name_common ''
_cell_length_a 16.152
_cell_length_b 16.386
_cell_length_c 17.297
_cell_angle_alpha 89.875
_cell_angle_beta 103.749
_cell_angle_gamma 90.013
_space_group_name_H-M_alt 'P 1'
_space_group_name_Hall 'P 1'
loop_
    _symmetry_equiv_pos_as_xyz
    x,y,z
loop_
    _atom_site_label
    _atom_site_type_symbol
    _atom_site_fract_x
    _atom_site_fract_y
    _atom_site_fract_z
    _atom_site_occupancy
    Zr0     Zr   0.63525   0.04147   0.55990   1.000
    Zr1     Zr   0.94858   0.98950   0.17434   1.000
    Zr2     Zr   0.86458   0.54171   0.43691   1.000
    Zr3     Zr   0.55096   0.48970   0.82359   1.000
    Zr4     Zr   0.36481   0.95850   0.43964   1.000
    Zr5     Zr   0.04937   0.01042   0.82330   1.000
    Zr6     Zr   0.13513   0.45837   0.55988   1.000
    Zr7     Zr   0.44806   0.51019   0.17398   1.000
    Zr8     Zr   0.00001   0.00028   0.99967   1.000
    Zr9     Zr   0.49996   0.50005   0.99957   1.000
    N10     N    0.25909   0.26729   0.00817   1.000
    O11     O    0.35531   0.36352   0.00609   1.000
    O12     O    0.33708   0.36373   0.08094   1.000
    O13     O    0.17216   0.16147   0.93068   1.000
    N14     N    0.93646   0.60452   0.91348   1.000
    O15     O    0.04604   0.55674   0.75297   1.000
    O16     O    0.71824   0.55666   0.03250   1.000
    O17     O    0.73121   0.55412   0.98890   1.000
    N18     N    0.06288   0.39507   0.08496   1.000
    O19     O    0.26834   0.44572   0.00980   1.000
    O20     O    0.28109   0.44313   0.96580   1.000
    O21     O    0.95347   0.44303   0.24478   1.000
    N22     N    0.56246   0.10484   0.08549   1.000
    O23     O    0.78028   0.05760   0.96606   1.000
    O24     O    0.76794   0.05506   0.01015   1.000
    O25     O    0.45336   0.05700   0.24618   1.000
    N26     N    0.49950   0.49989   0.49907   1.000
    O27     O    0.47371   0.51221   0.36393   1.000
    O28     O    0.52487   0.48714   0.63391   1.000
    N29     N    0.74737   0.24237   0.00849   1.000
    O30     O    0.64392   0.34569   0.00440   1.000
    O31     O    0.83135   0.14092   0.08154   1.000
    O32     O    0.66602   0.34266   0.93069   1.000
    O33     O    0.84937   0.14128   0.00661   1.000
    N34     N    0.75237   0.74227   0.99041   1.000
    O35     O    0.66833   0.64089   0.91725   1.000
    O36     O    0.83373   0.84248   0.06786   1.000
    O37     O    0.65039   0.64122   0.99254   1.000
    O38     O    0.85587   0.84570   0.99444   1.000
    N39     N    0.14941   0.70585   0.43786   1.000
    O40     O    0.24959   0.80262   0.44139   1.000
    O41     O    0.03187   0.63155   0.42471   1.000
    O42     O    0.12629   0.59073   0.47152   1.000
    N43     N    0.64892   0.79394   0.43761   1.000
    O44     O    0.53149   0.86836   0.42557   1.000
    O45     O    0.74905   0.69732   0.43971   1.000
    O46     O    0.62594   0.90904   0.47152   1.000
    N47     N    0.43682   0.89418   0.91364   1.000
    O48     O    0.21865   0.94264   0.03263   1.000
    O49     O    0.23151   0.94533   0.98896   1.000
    O50     O    0.54624   0.94247   0.75315   1.000
    N51     N    0.35101   0.20606   0.56064   1.000
    O52     O    0.25078   0.30272   0.55781   1.000
    O53     O    0.46847   0.13166   0.57323   1.000
    O54     O    0.37404   0.09092   0.52735   1.000
    N55     N    0.99323   0.99343   0.50231   1.000
    O56     O    0.97139   0.98377   0.36579   1.000
    O57     O    0.02114   0.00970   0.63540   1.000
    N58     N    0.84965   0.29418   0.55991   1.000
    O59     O    0.96747   0.36850   0.57253   1.000
    O60     O    0.74975   0.19739   0.55673   1.000
    O61     O    0.87298   0.40929   0.52579   1.000
    N62     N    0.25155   0.75775   0.99014   1.000
    O63     O    0.35530   0.65443   0.99425   1.000
    O64     O    0.16679   0.85890   0.91684   1.000
    O65     O    0.15000   0.85901   0.99244   1.000
    O66     O    0.33312   0.65747   0.06761   1.000
loop_
    _geom_bond_atom_site_label_1
    _geom_bond_atom_site_label_2
    _geom_bond_distance
    _geom_bond_site_symmetry_2
    _ccdc_geom_bond_type
    N10    O11       2.21998      .   S
    Zr9    O11       3.25552  1_556   S
    N10    O12       2.21876      .   S
    Zr7    O12       3.19470      .   S
    N10    O13       2.42670  1_554   S
    Zr5    O13       3.43161      .   S
    N14    O15       3.71469  1_655   S
    Zr6    O15       4.25833      .   S
    N14    O16       4.55172  1_556   S
    Zr7    O16       5.53882      .   S
    N14    O17       3.92733      .   S
    Zr9    O17       3.88541      .   S
    N18    O19       3.92904      .   S
    Zr9    O19       3.88997  1_556   S
    N18    O20       4.55366  1_554   S
    Zr3    O20       5.54262      .   S
    N18    O21       3.70336  1_455   S
    Zr2    O21       4.24404      .   S
    N22    O23       4.55064  1_554   S
    Zr5    O23       5.54043  1_455   S
    N22    O24       3.92951      .   S
    Zr8    O24       3.90055  1_456   S
    N22    O25       3.70983      .   S
    Zr4    O25       4.25429  1_565   S
    N26    O27       2.28329      .   S
    Zr7    O27       3.21267      .   S
    N26    O28       2.27920      .   S
    Zr3    O28       3.20736      .   S
    N29    O30       2.36815      .   S
    Zr9    O30       3.42354  1_556   S
    N29    O31       2.31885      .   S
    Zr1    O31       3.29514  1_565   S
    N29    O32       2.32148  1_554   S
    Zr3    O32       3.32208      .   S
    N29    O33       2.34218      .   S
    Zr8    O33       3.37871  1_456   S
    N34    O35       2.32277      .   S
    Zr3    O35       3.30319      .   S
    N34    O36       2.32165  1_556   S
    Zr1    O36       3.32121      .   S
    N34    O37       2.34176      .   S
    Zr9    O37       3.37724      .   S
    N34    O38       2.36980      .   S
    Zr8    O38       3.42669  1_445   S
    N39    O40       2.25587      .   S
    Zr4    O40       3.16425      .   S
    N39    O41       2.22110      .   S
    Zr2    O41       3.12741  1_655   S
    N39    O42       2.03346      .   S
    Zr6    O42       2.63490      .   S
    N43    O44       2.22262      .   S
    Zr4    O44       3.13106      .   S
    N43    O45       2.25756      .   S
    Zr2    O45       3.16734      .   S
    N43    O46       2.03647      .   S
    Zr0    O46       2.64080  1_545   S
    N47    O48       4.55421  1_556   S
    Zr1    O48       5.54236  1_655   S
    N47    O49       3.93161      .   S
    Zr8    O49       3.89322  1_545   S
    N47    O50       3.71184      .   S
    Zr0    O50       4.25806  1_545   S
    N51    O52       2.25722      .   S
    Zr6    O52       3.16693      .   S
    N51    O53       2.22198      .   S
    Zr0    O53       3.12919      .   S
    N51    O54       2.03376      .   S
    Zr4    O54       2.63418  1_565   S
    N55    O56       2.30894      .   S
    Zr1    O56       3.24488      .   S
    N55    O57       2.25455  1_665   S
    Zr5    O57       3.17291      .   S
    N58    O59       2.22599      .   S
    Zr6    O59       3.13493  1_455   S
    N58    O60       2.25365      .   S
    Zr0    O60       3.16170      .   S
    N58    O61       2.03681      .   S
    Zr2    O61       2.64128      .   S
    N62    O63       2.37146      .   S
    Zr9    O63       3.43027      .   S
    N62    O64       2.32280      .   S
    Zr5    O64       3.30232  1_545   S
    N62    O65       2.34038      .   S
    Zr8    O65       3.37501  1_545   S
    N62    O66       2.32034  1_556   S
    Zr7    O66       3.31891      .   S
