# CIF file generated by openbabel 2.4.90, see http://openbabel.sf.net
data_I
_chemical_name_common ''
_cell_length_a 8.9005
_cell_length_b 9.957
_cell_length_c 10.173
_cell_angle_alpha 82.633
_cell_angle_beta 88.724
_cell_angle_gamma 86.396
_space_group_name_H-M_alt 'P 1'
_space_group_name_Hall 'P 1'
loop_
    _symmetry_equiv_pos_as_xyz
    x,y,z
loop_
    _atom_site_label
    _atom_site_type_symbol
    _atom_site_fract_x
    _atom_site_fract_y
    _atom_site_fract_z
    _atom_site_occupancy
    H0      H    0.87032   0.43608   0.58438   1.000
    H1      H    0.87645   0.91479   0.95403   1.000
    H2      H    0.43389   0.52856   0.63596   1.000
    H3      H    0.37124   0.08663   0.92562   1.000
    H4      H    0.12969   0.56393   0.41560   1.000
    H5      H    0.12356   0.08522   0.04595   1.000
    H6      H    0.56614   0.47144   0.36402   1.000
    H7      H    0.62876   0.91335   0.07436   1.000
    C8      C    0.96506   0.44201   0.51451   1.000
    C9      C    0.97334   0.97697   0.94633   1.000
    C10     C    0.49673   0.54598   0.54277   1.000
    C11     C    0.47278   0.01975   0.93920   1.000
    C12     C    0.03496   0.55799   0.48547   1.000
    C13     C    0.02667   0.02304   0.05365   1.000
    C14     C    0.50329   0.45402   0.45722   1.000
    C15     C    0.52723   0.98024   0.06079   1.000
loop_
    _geom_bond_atom_site_label_1
    _geom_bond_atom_site_label_2
    _geom_bond_distance
    _geom_bond_site_symmetry_2
    _ccdc_geom_bond_type
    H5     C13       1.08850      .   S
    C13    C9        1.34407  1_444   S
    C15    H7        1.08884      .   S
    C15    C11       1.34073  1_564   S
    H6     C14       1.09006      .   S
    H4     C12       1.09019      .   S
    C14    C10       1.33959      .   S
    C12    C8        1.34261  1_455   S
    C8     H0        1.09018      .   S
    C10    H2        1.09006      .   S
    H3     C11       1.08884      .   S
    C9     H1        1.08852      .   S
