# CIF file generated by openbabel 2.4.90, see http://openbabel.sf.net
data_I
_chemical_name_common ''
_cell_length_a 8.9005
_cell_length_b 9.957
_cell_length_c 10.173
_cell_angle_alpha 82.633
_cell_angle_beta 88.724
_cell_angle_gamma 86.396
_space_group_name_H-M_alt 'P 1'
_space_group_name_Hall 'P 1'
loop_
    _symmetry_equiv_pos_as_xyz
    x,y,z
loop_
    _atom_site_label
    _atom_site_type_symbol
    _atom_site_fract_x
    _atom_site_fract_y
    _atom_site_fract_z
    _atom_site_occupancy
    Zn0     Zn   0.70520   0.88823   0.35092   1.000
    Zn1     Zn   0.24425   0.16188   0.32870   1.000
    Zn2     Zn   0.29481   0.11178   0.64906   1.000
    Zn3     Zn   0.00000   0.00000   0.49999   1.000
    H4      H    0.70676   0.05892   0.51701   1.000
    H5      H    0.29326   0.94108   0.48298   1.000
    C6      C    0.01536   0.31314   0.46210   1.000
    C7      C    0.04030   0.00678   0.81088   1.000
    C8      C    0.57617   0.67357   0.52014   1.000
    C9      C    0.54723   0.97582   0.81894   1.000
    C10     C    0.98466   0.68687   0.53788   1.000
    C11     C    0.95971   0.99323   0.18910   1.000
    C12     C    0.42385   0.32643   0.47984   1.000
    C13     C    0.45279   0.02418   0.18105   1.000
    O14     O    0.76842   0.97657   0.50516   1.000
    O15     O    0.96282   0.20573   0.52271   1.000
    Zn16    Zn   0.75576   0.83813   0.67128   1.000
    O17     O    0.10909   0.31862   0.36419   1.000
    O18     O    0.98134   0.95623   0.71686   1.000
    O19     O    0.15443   0.08062   0.79878   1.000
    O20     O    0.56970   0.74521   0.61506   1.000
    O21     O    0.64556   0.70240   0.40862   1.000
    O22     O    0.66473   0.89485   0.83410   1.000
    O23     O    0.49557   0.02132   0.70461   1.000
    O24     O    0.23159   0.02344   0.49482   1.000
    O25     O    0.03719   0.79428   0.47727   1.000
    O26     O    0.89093   0.68139   0.63579   1.000
    O27     O    0.01867   0.04377   0.28312   1.000
    O28     O    0.84558   0.91940   0.20120   1.000
    O29     O    0.43032   0.25480   0.38491   1.000
    O30     O    0.35447   0.29760   0.59136   1.000
    O31     O    0.33528   0.10515   0.16588   1.000
    O32     O    0.50444   0.97868   0.29538   1.000
loop_
    _geom_bond_atom_site_label_1
    _geom_bond_atom_site_label_2
    _geom_bond_distance
    _geom_bond_site_symmetry_2
    _ccdc_geom_bond_type
    O31    C13       1.27940      .   S
    O31    Zn1       1.95998      .   S
    C13    O32       1.27746  1_545   S
    C11    O28       1.28561      .   S
    C11    O27       1.27371  1_665   S
    O28    Zn0       1.95451      .   S
    O27    Zn3       2.19801      .   S
    O32    Zn0       2.00887      .   S
    Zn1    O17       1.97547      .   S
    Zn1    O29       2.07273      .   S
    Zn0    O21       1.97003      .   S
    Zn0    O14       2.00189      .   S
    O17    C6        1.28291      .   S
    O29    C12       1.27030      .   S
    O21    C8        1.28780      .   S
    C6     O15       1.27417  1_455   S
    O25    Zn3       2.09557  1_565   S
    O25    C10       1.27417  1_455   S
    C12    O30       1.28780      .   S
    H5     O24       0.97674  1_565   S
    O24    Zn2       2.00191      .   S
    Zn3    O15       2.09564  1_455   S
    Zn3    O18       2.19802  1_445   S
    O14    H4        0.97675  1_565   S
    C8     O20       1.27030      .   S
    C10    O26       1.28291      .   S
    O30    Zn2       1.97003      .   S
    O20    Zn16      2.07274      .   S
    O26    Zn16      1.97549      .   S
    Zn2    O23       2.00886      .   S
    Zn2    O19       1.95452      .   S
    Zn16   O22       1.95997      .   S
    O23    C9        1.27746  1_545   S
    O18    C7        1.27371  1_665   S
    O19    C7        1.28559      .   S
    C9     O22       1.27939      .   S
    O14    Zn16      2.04509      .   S
    O14    Zn3       2.08762  1_665   S
    O24    Zn1       2.04509      .   S
    O24    Zn3       2.08775      .   S
