# CIF file generated by openbabel 2.4.90, see http://openbabel.sf.net
data_I
_chemical_name_common ''
_cell_length_a 8.9005
_cell_length_b 9.957
_cell_length_c 10.173
_cell_angle_alpha 82.633
_cell_angle_beta 88.724
_cell_angle_gamma 86.396
_space_group_name_H-M_alt 'P 1'
_space_group_name_Hall 'P 1'
loop_
    _symmetry_equiv_pos_as_xyz
    x,y,z
loop_
    _atom_site_label
    _atom_site_type_symbol
    _atom_site_fract_x
    _atom_site_fract_y
    _atom_site_fract_z
    _atom_site_occupancy
    Zr0     Zr   0.75576   0.83813   0.67128   1.000
    Zr1     Zr   0.70520   0.88823   0.35092   1.000
    Zr2     Zr   0.24425   0.16188   0.32870   1.000
    Zr3     Zr   0.29481   0.11178   0.64906   1.000
    Zr4     Zr   0.00000   0.00000   0.49999   1.000
    Zr5     Zr   0.70676   0.05892   0.51701   1.000
    Zr6     Zr   0.29326   0.94108   0.48298   1.000
    Zr7     Zr   0.01536   0.31314   0.46210   1.000
    Zr8     Zr   0.04030   0.00678   0.81088   1.000
    Zr9     Zr   0.57617   0.67357   0.52014   1.000
    Zr10    Zr   0.54723   0.97582   0.81894   1.000
    Zr11    Zr   0.98466   0.68687   0.53788   1.000
    Zr12    Zr   0.95971   0.99323   0.18910   1.000
    Zr13    Zr   0.42385   0.32643   0.47984   1.000
    Zr14    Zr   0.45279   0.02418   0.18105   1.000
    Zr15    Zr   0.76842   0.97657   0.50516   1.000
    Zr16    Zr   0.96282   0.20573   0.52271   1.000
    Zr17    Zr   0.10909   0.31862   0.36419   1.000
    Zr18    Zr   0.98134   0.95623   0.71686   1.000
    Zr19    Zr   0.15443   0.08062   0.79878   1.000
    Zr20    Zr   0.56970   0.74521   0.61506   1.000
    Zr21    Zr   0.64556   0.70240   0.40862   1.000
    Zr22    Zr   0.66473   0.89485   0.83410   1.000
    Zr23    Zr   0.49557   0.02132   0.70461   1.000
    Zr24    Zr   0.23159   0.02344   0.49482   1.000
    Zr25    Zr   0.03719   0.79428   0.47727   1.000
    Zr26    Zr   0.89093   0.68139   0.63579   1.000
    Zr27    Zr   0.01867   0.04377   0.28312   1.000
    Zr28    Zr   0.84558   0.91940   0.20120   1.000
    Zr29    Zr   0.43032   0.25480   0.38491   1.000
    Zr30    Zr   0.35447   0.29760   0.59136   1.000
    Zr31    Zr   0.33528   0.10515   0.16588   1.000
    Zr32    Zr   0.50444   0.97868   0.29538   1.000
    O33     O    0.39403   0.06467   0.17346   1.000
    O34     O    0.28977   0.13351   0.24729   1.000
    O35     O    0.47861   0.00143   0.23821   1.000
    O36     O    0.90264   0.95632   0.19515   1.000
    O37     O    0.98919   0.01850   0.23611   1.000
    O38     O    0.77539   0.90381   0.27606   1.000
    O39     O    0.00933   0.02189   0.39155   1.000
    O40     O    0.60482   0.93345   0.32315   1.000
    O41     O    0.17667   0.24025   0.34644   1.000
    O42     O    0.33729   0.20834   0.35681   1.000
    O43     O    0.67538   0.79531   0.37977   1.000
    O44     O    0.73681   0.93240   0.42804   1.000
    O45     O    0.06222   0.31588   0.41315   1.000
    O46     O    0.42708   0.29062   0.43238   1.000
    O47     O    0.61086   0.68798   0.46438   1.000
    O48     O    0.98909   0.25943   0.49241   1.000
    O49     O    0.01860   0.89714   0.48863   1.000
    O50     O    0.01092   0.74058   0.50757   1.000
    O51     O    0.38916   0.31202   0.53560   1.000
    O52     O    0.26243   0.98226   0.48890   1.000
    O53     O    0.26320   0.06761   0.57194   1.000
    O54     O    0.98141   0.10286   0.51135   1.000
    O55     O    0.99067   0.97812   0.60843   1.000
    O56     O    0.73759   0.01775   0.51108   1.000
    O57     O    0.57293   0.70939   0.56760   1.000
    O58     O    0.93779   0.68413   0.58683   1.000
    O59     O    0.32464   0.20469   0.62021   1.000
    O60     O    0.66273   0.79167   0.64317   1.000
    O61     O    0.82334   0.75976   0.65354   1.000
    O62     O    0.39519   0.06655   0.67683   1.000
    O63     O    0.22462   0.09620   0.72392   1.000
    O64     O    0.71025   0.86649   0.75269   1.000
    O65     O    0.52140   0.99857   0.76177   1.000
    O66     O    0.01082   0.98151   0.76387   1.000
    O67     O    0.09737   0.04370   0.80483   1.000
    O68     O    0.60598   0.93533   0.82652   1.000
    O69     O    0.76209   0.90735   0.58822   1.000
    O70     O    0.88421   0.98828   0.50257   1.000
    O71     O    0.23792   0.09266   0.41176   1.000
    O72     O    0.11580   0.01172   0.49741   1.000
    N73     N    0.00001   0.50000   0.49999   1.000
    O74     O    0.99511   0.43879   0.49415   1.000
    O75     O    0.00491   0.56122   0.50583   1.000
    N76     N    0.50001   0.50000   0.49999   1.000
    O77     O    0.48179   0.44511   0.48426   1.000
    O78     O    0.51823   0.55489   0.51572   1.000
    N79     N    0.00001   0.00000   0.99999   1.000
    O80     O    0.99660   0.00407   0.06068   1.000
    O81     O    0.00341   0.99594   0.93930   1.000
    N82     N    0.50000   1.00000   0.99999   1.000
    O83     O    0.49500   0.00111   0.06045   1.000
    O84     O    0.50500   0.99889   0.93953   1.000
loop_
    _geom_bond_atom_site_label_1
    _geom_bond_atom_site_label_2
    _geom_bond_distance
    _geom_bond_site_symmetry_2
    _ccdc_geom_bond_type
    Zr31   O33       0.63970      .   S
    Zr14   O33       0.63970      .   S
    Zr31   O34       0.97999      .   S
    Zr2    O34       0.97999      .   S
    Zr14   O35       0.63873      .   S
    Zr32   O35       0.63873  1_565   S
    Zr12   O36       0.64280      .   S
    Zr28   O36       0.64280      .   S
    Zr12   O37       0.63685  1_565   S
    Zr27   O37       0.63685  1_455   S
    Zr28   O38       0.97726      .   S
    Zr1    O38       0.97726      .   S
    Zr27   O39       1.09901      .   S
    Zr4    O39       1.09901      .   S
    Zr32   O40       1.00443      .   S
    Zr1    O40       1.00443      .   S
    Zr2    O41       0.98773      .   S
    Zr17   O41       0.98773      .   S
    Zr2    O42       1.03637      .   S
    Zr29   O42       1.03637      .   S
    Zr1    O43       0.98502      .   S
    Zr21   O43       0.98502      .   S
    Zr1    O44       1.00095      .   S
    Zr15   O44       1.00095      .   S
    Zr17   O45       0.64145      .   S
    Zr7    O45       0.64145      .   S
    Zr29   O46       0.63515      .   S
    Zr13   O46       0.63515      .   S
    Zr21   O47       0.64390      .   S
    Zr9    O47       0.64390      .   S
    Zr7    O48       0.63708  1_455   S
    Zr16   O48       0.63708      .   S
    Zr25   O49       1.04778      .   S
    Zr4    O49       1.04778  1_545   S
    Zr25   O50       0.63708      .   S
    Zr11   O50       0.63708  1_655   S
    Zr13   O51       0.64390      .   S
    Zr30   O51       0.64390      .   S
    Zr6    O52       0.48837      .   S
    Zr24   O52       0.48837  1_545   S
    Zr24   O53       1.00096      .   S
    Zr3    O53       1.00096      .   S
    Zr4    O54       1.04782  1_455   S
    Zr16   O54       1.04782      .   S
    Zr4    O55       1.09901  1_445   S
    Zr18   O55       1.09901      .   S
    Zr15   O56       0.48837  1_565   S
    Zr5    O56       0.48837      .   S
    Zr9    O57       0.63515      .   S
    Zr20   O57       0.63515      .   S
    Zr11   O58       0.64146      .   S
    Zr26   O58       0.64146      .   S
    Zr30   O59       0.98501      .   S
    Zr3    O59       0.98501      .   S
    Zr20   O60       1.03637      .   S
    Zr0    O60       1.03637      .   S
    Zr26   O61       0.98775      .   S
    Zr0    O61       0.98775      .   S
    Zr3    O62       1.00443      .   S
    Zr23   O62       1.00443      .   S
    Zr3    O63       0.97726      .   S
    Zr19   O63       0.97726      .   S
    Zr0    O64       0.97998      .   S
    Zr22   O64       0.97998      .   S
    Zr23   O65       0.63873  1_545   S
    Zr10   O65       0.63873      .   S
    Zr18   O66       0.63686  1_655   S
    Zr8    O66       0.63686  1_545   S
    Zr19   O67       0.64279      .   S
    Zr8    O67       0.64279      .   S
    Zr10   O68       0.63969      .   S
    Zr22   O68       0.63969      .   S
    Zr15   O69       1.02255      .   S
    Zr0    O69       1.02255      .   S
    Zr15   O70       1.04381      .   S
    Zr4    O70       1.04381  1_445   S
    Zr24   O71       1.02254      .   S
    Zr2    O71       1.02254      .   S
    Zr24   O72       1.04388      .   S
    Zr4    O72       1.04388      .   S
    N73    O74       0.62425  1_455   S
    Zr7    O74       1.33331  1_455   S
    N73    O75       0.62425      .   S
    Zr11   O75       1.33331  1_655   S
    N76    O77       0.62073      .   S
    Zr13   O77       1.32503      .   S
    N76    O78       0.62073      .   S
    Zr9    O78       1.32503      .   S
    N79    O80       0.62386  1_456   S
    Zr12   O80       1.33241  1_565   S
    N79    O81       0.62386  1_545   S
    Zr8    O81       1.33242  1_545   S
    N82    O83       0.61716  1_566   S
    Zr14   O83       1.31907      .   S
    N82    O84       0.61716      .   S
    Zr10   O84       1.31907      .   S
