# CIF file generated by openbabel 2.4.90, see http://openbabel.sf.net
data_I
_chemical_name_common ''
_cell_length_a 13.996
_cell_length_b 14.622
_cell_length_c 18.585
_cell_angle_alpha 69.124
_cell_angle_beta 67.88
_cell_angle_gamma 61.406
_space_group_name_H-M_alt 'P 1'
_space_group_name_Hall 'P 1'
loop_
    _symmetry_equiv_pos_as_xyz
    x,y,z
loop_
    _atom_site_label
    _atom_site_type_symbol
    _atom_site_fract_x
    _atom_site_fract_y
    _atom_site_fract_z
    _atom_site_occupancy
    Zr0     Zr   0.36376   0.44094   0.10180   1.000
    Zr1     Zr   0.55117   0.24562   0.31401   1.000
    Zr2     Zr   0.89430   0.05356   0.41561   1.000
    Zr3     Zr   0.11082   0.24793   0.20410   1.000
    Zr4     Zr   0.60699   0.54877   0.93217   1.000
    Zr5     Zr   0.41958   0.74410   0.71990   1.000
    Zr6     Zr   0.07646   0.93614   0.61836   1.000
    Zr7     Zr   0.85993   0.74179   0.82982   1.000
    N8      N    0.36663   0.91267   0.04884   1.000
    O9      O    0.26394   0.05122   0.10923   1.000
    O10     O    0.46391   0.76356   0.00309   1.000
    N11     N    0.72427   0.84028   0.67655   1.000
    O12     O    0.76052   0.78168   0.75638   1.000
    O13     O    0.68665   0.70462   0.77623   1.000
    O14     O    0.85509   0.89950   0.65149   1.000
    O15     O    0.60563   0.80411   0.68686   1.000
    O16     O    0.56712   0.82742   0.70682   1.000
    O17     O    0.80830   0.91371   0.56101   1.000
    O18     O    0.80445   0.81204   0.72601   1.000
    N19     N    0.23112   0.64476   0.87001   1.000
    O20     O    0.33157   0.67347   0.82221   1.000
    O21     O    0.08290   0.68108   0.86123   1.000
    O22     O    0.39214   0.58581   0.89699   1.000
    O23     O    0.15659   0.78050   0.77235   1.000
    O24     O    0.27774   0.57790   0.97087   1.000
    O25     O    0.28754   0.70372   0.79187   1.000
    N26     N    0.73964   0.34496   0.16249   1.000
    O27     O    0.81417   0.20921   0.26089   1.000
    O28     O    0.69301   0.41181   0.06237   1.000
    O29     O    0.57862   0.40391   0.13625   1.000
    O30     O    0.88786   0.30864   0.17199   1.000
    O31     O    0.63919   0.31624   0.21100   1.000
    O32     O    0.68321   0.28600   0.24135   1.000
    N33     N    0.24649   0.14942   0.35740   1.000
    O34     O    0.28411   0.28509   0.25774   1.000
    O35     O    0.16631   0.17767   0.30792   1.000
    O36     O    0.11568   0.09021   0.38246   1.000
    O37     O    0.40364   0.16228   0.32713   1.000
    O38     O    0.36513   0.18560   0.34708   1.000
    O39     O    0.21024   0.20804   0.27757   1.000
    O40     O    0.16247   0.07599   0.47294   1.000
    N41     N    0.31740   0.58234   0.47665   1.000
    O42     O    0.41339   0.44322   0.41245   1.000
    O43     O    0.21925   0.72636   0.53495   1.000
    N44     N    0.60412   0.07705   0.98281   1.000
    O45     O    0.50684   0.22616   0.02972   1.000
    O46     O    0.70681   0.93850   0.92357   1.000
    N47     N    0.65336   0.40737   0.55732   1.000
    O48     O    0.75151   0.26334   0.49902   1.000
    O49     O    0.55736   0.54649   0.62151   1.000
loop_
    _geom_bond_atom_site_label_1
    _geom_bond_atom_site_label_2
    _geom_bond_distance
    _geom_bond_site_symmetry_2
    _ccdc_geom_bond_type
    N8     O9        2.24674  1_565   S
    Zr3    O9        3.29298      .   S
    N8     O10       2.22223      .   S
    Zr4    O10       3.24857  1_556   S
    N11    O12       1.56118      .   S
    Zr7    O12       2.05557      .   S
    N11    O13       2.30008      .   S
    Zr4    O13       3.18230      .   S
    N11    O14       2.21504      .   S
    Zr6    O14       3.19112  1_455   S
    N11    O15       1.89812      .   S
    Zr5    O15       2.92001      .   S
    N11    O16       2.13966      .   S
    Zr5    O16       2.76171      .   S
    N11    O17       2.19326      .   S
    Zr2    O17       2.98346  1_545   S
    N11    O18       1.52883      .   S
    Zr7    O18       2.08155      .   S
    N19    O20       1.51672      .   S
    Zr5    O20       2.06239      .   S
    N19    O21       1.93671      .   S
    Zr7    O21       3.03614  1_655   S
    N19    O22       2.18096      .   S
    Zr4    O22       3.07126      .   S
    N19    O23       2.28006      .   S
    Zr6    O23       3.15581      .   S
    N19    O24       1.97476      .   S
    Zr0    O24       2.79402  1_554   S
    N19    O25       1.53994      .   S
    Zr5    O25       2.04274      .   S
    N26    O27       2.28912      .   S
    Zr2    O27       3.16658      .   S
    N26    O28       1.96252      .   S
    Zr4    O28       2.78344  1_556   S
    N26    O29       2.17450      .   S
    Zr0    O29       3.06429      .   S
    N26    O30       1.94198      .   S
    Zr3    O30       3.04236  1_455   S
    N26    O31       1.51860      .   S
    Zr1    O31       2.06926      .   S
    N26    O32       1.54736      .   S
    Zr1    O32       2.04554      .   S
    N33    O34       2.30001      .   S
    Zr0    O34       3.18220      .   S
    N33    O35       1.52908      .   S
    Zr3    O35       2.08181      .   S
    N33    O36       2.21509      .   S
    Zr2    O36       3.19110  1_655   S
    N33    O37       2.13961      .   S
    Zr1    O37       2.76142      .   S
    N33    O38       1.89803      .   S
    Zr1    O38       2.91980      .   S
    N33    O39       1.56126      .   S
    Zr3    O39       2.05601      .   S
    N33    O40       2.19336      .   S
    Zr6    O40       2.98362  1_565   S
    N41    O42       2.29638      .   S
    Zr1    O42       3.34531      .   S
    N41    O43       2.28740      .   S
    Zr6    O43       3.31564      .   S
    N44    O45       2.23312  1_556   S
    Zr0    O45       3.25974      .   S
    N44    O46       2.23441  1_545   S
    Zr7    O46       3.28041      .   S
    N47    O48       2.28740      .   S
    Zr2    O48       3.31569      .   S
    N47    O49       2.29628      .   S
    Zr5    O49       3.34488      .   S
