# CIF file generated by openbabel 2.4.90, see http://openbabel.sf.net
data_I
_chemical_name_common ''
_cell_length_a 16.201
_cell_length_b 21.517
_cell_length_c 18.871
_cell_angle_alpha 90
_cell_angle_beta 90.009
_cell_angle_gamma 90
_space_group_name_H-M_alt 'P 1'
_space_group_name_Hall 'P 1'
loop_
    _symmetry_equiv_pos_as_xyz
    x,y,z
loop_
    _atom_site_label
    _atom_site_type_symbol
    _atom_site_fract_x
    _atom_site_fract_y
    _atom_site_fract_z
    _atom_site_occupancy
    H0      H    0.47870   0.48090   0.36693   1.000
    H1      H    0.47861   0.98099   0.36000   1.000
    H2      H    0.97871   0.48090   0.36693   1.000
    H3      H    0.97862   0.98099   0.36000   1.000
    H4      H    0.22395   0.48311   0.32372   1.000
    H5      H    0.22388   0.98302   0.32368   1.000
    H6      H    0.72396   0.48311   0.32372   1.000
    H7      H    0.72389   0.98302   0.32368   1.000
    H8      H    0.27133   0.01905   0.86695   1.000
    H9      H    0.27125   0.51916   0.86687   1.000
    H10     H    0.77134   0.01905   0.86695   1.000
    H11     H    0.77127   0.51916   0.86680   1.000
    H12     H    0.02603   0.01699   0.82367   1.000
    H13     H    0.02597   0.51691   0.82368   1.000
    H14     H    0.52604   0.01699   0.82367   1.000
    H15     H    0.52599   0.51691   0.82368   1.000
    H16     H    0.02125   0.23095   0.63306   1.000
    H17     H    0.02129   0.73088   0.63313   1.000
    H18     H    0.52126   0.23095   0.63306   1.000
    H19     H    0.52131   0.73088   0.63313   1.000
    H20     H    0.27597   0.23305   0.67638   1.000
    H21     H    0.27605   0.73305   0.67631   1.000
    H22     H    0.77599   0.23305   0.67638   1.000
    H23     H    0.77607   0.73305   0.67631   1.000
    H24     H    0.22865   0.26916   0.13318   1.000
    H25     H    0.22872   0.76910   0.13311   1.000
    H26     H    0.72866   0.26916   0.13318   1.000
    H27     H    0.72873   0.76910   0.13311   1.000
    H28     H    0.47392   0.26697   0.17634   1.000
    H29     H    0.47402   0.76698   0.17641   1.000
    H30     H    0.97394   0.26697   0.17634   1.000
    H31     H    0.97403   0.76698   0.17641   1.000
    H32     H    0.02134   0.01903   0.63304   1.000
    H33     H    0.02125   0.51912   0.63312   1.000
    H34     H    0.52135   0.01903   0.63304   1.000
    H35     H    0.52127   0.51912   0.63312   1.000
    H36     H    0.27607   0.01699   0.67635   1.000
    H37     H    0.27601   0.51690   0.67632   1.000
    H38     H    0.77608   0.01699   0.67635   1.000
    H39     H    0.77602   0.51690   0.67632   1.000
    H40     H    0.22870   0.48086   0.13318   1.000
    H41     H    0.22862   0.98097   0.13309   1.000
    H42     H    0.72871   0.48086   0.13310   1.000
    H43     H    0.72863   0.98097   0.13309   1.000
    H44     H    0.47398   0.48311   0.17636   1.000
    H45     H    0.47392   0.98302   0.17637   1.000
    H46     H    0.97399   0.48311   0.17636   1.000
    H47     H    0.97393   0.98302   0.17637   1.000
    H48     H    0.47865   0.26913   0.36690   1.000
    H49     H    0.47870   0.76907   0.36690   1.000
    H50     H    0.97866   0.26913   0.36691   1.000
    H51     H    0.97871   0.76907   0.36690   1.000
    H52     H    0.22390   0.26697   0.32370   1.000
    H53     H    0.22398   0.76697   0.32365   1.000
    H54     H    0.72391   0.26697   0.32372   1.000
    H55     H    0.72399   0.76697   0.32365   1.000
    H56     H    0.27123   0.23093   0.86694   1.000
    H57     H    0.27129   0.73085   0.86686   1.000
    H58     H    0.77125   0.23093   0.86690   1.000
    H59     H    0.77131   0.73085   0.86686   1.000
    H60     H    0.02593   0.23303   0.82363   1.000
    H61     H    0.02602   0.73305   0.82370   1.000
    H62     H    0.52594   0.23303   0.82363   1.000
    H63     H    0.52604   0.73305   0.82370   1.000
    H64     H    0.48856   0.37507   0.54168   1.000
    H65     H    0.48862   0.87494   0.54160   1.000
    H66     H    0.98857   0.37507   0.54168   1.000
    H67     H    0.98863   0.87495   0.54160   1.000
    C68     C    0.79931   0.87495   0.58840   1.000
    C69     C    0.32094   0.12507   0.06811   1.000
    C70     C    0.32103   0.62497   0.06811   1.000
    C71     C    0.82096   0.12507   0.06811   1.000
    H72     H    0.23283   0.37500   0.58071   1.000
    H73     H    0.23290   0.87495   0.58073   1.000
    H74     H    0.73285   0.37500   0.58071   1.000
    H75     H    0.73291   0.87495   0.58073   1.000
    H76     H    0.26140   0.12507   0.04159   1.000
    H77     H    0.26148   0.62495   0.04160   1.000
    H78     H    0.76141   0.12507   0.04159   1.000
    H79     H    0.76149   0.62495   0.04160   1.000
    H80     H    0.01711   0.12507   0.08074   1.000
    H81     H    0.01719   0.62502   0.08071   1.000
    H82     H    0.51712   0.12507   0.08074   1.000
    H83     H    0.51720   0.62502   0.08071   1.000
    H84     H    0.01133   0.12507   0.45838   1.000
    H85     H    0.01140   0.62495   0.45836   1.000
    H86     H    0.51134   0.12507   0.45838   1.000
    H87     H    0.51141   0.62495   0.45836   1.000
    H88     H    0.26705   0.12506   0.41930   1.000
    H89     H    0.26712   0.62502   0.41930   1.000
    H90     H    0.76706   0.12506   0.41930   1.000
    H91     H    0.76714   0.62502   0.41930   1.000
    H92     H    0.23848   0.37507   0.95844   1.000
    H93     H    0.23855   0.87494   0.95845   1.000
    H94     H    0.73849   0.37507   0.95844   1.000
    H95     H    0.73856   0.87494   0.95845   1.000
    H96     H    0.48276   0.37500   0.91933   1.000
    H97     H    0.48284   0.87494   0.91930   1.000
    H98     H    0.98278   0.37500   0.91933   1.000
    H99     H    0.98285   0.87494   0.91930   1.000
    N100    N    0.34591   0.45500   0.80873   1.000
    N101    N    0.34602   0.95495   0.80874   1.000
    N102    N    0.84592   0.45500   0.80873   1.000
    N103    N    0.84603   0.95495   0.80874   1.000
    N104    N    0.42937   0.45446   0.79410   1.000
    C105    C    0.41811   0.49430   0.34760   1.000
    C106    C    0.41801   0.99435   0.34764   1.000
    C107    C    0.91812   0.49430   0.34760   1.000
    C108    C    0.91802   0.99435   0.34764   1.000
    C109    C    0.28892   0.49539   0.32501   1.000
    C110    C    0.28883   0.99534   0.32499   1.000
    C111    C    0.78893   0.49539   0.32501   1.000
    C112    C    0.78885   0.99534   0.32499   1.000
    C113    C    0.33192   0.00568   0.84762   1.000
    C114    C    0.33184   0.50574   0.84756   1.000
    C115    C    0.83193   0.00568   0.84762   1.000
    C116    C    0.83185   0.50574   0.84756   1.000
    C117    C    0.46109   0.00468   0.82498   1.000
    C118    C    0.46102   0.50464   0.82498   1.000
    C119    C    0.96110   0.00468   0.82498   1.000
    C120    C    0.96103   0.50464   0.82498   1.000
    C121    C    0.08184   0.24432   0.65241   1.000
    C122    C    0.08189   0.74427   0.65245   1.000
    C123    C    0.58185   0.24432   0.65241   1.000
    C124    C    0.58191   0.74427   0.65245   1.000
    C125    C    0.21102   0.24535   0.67506   1.000
    C126    C    0.21109   0.74534   0.67502   1.000
    C127    C    0.71103   0.24535   0.67506   1.000
    C128    C    0.71110   0.74534   0.67502   1.000
    C129    C    0.16806   0.25576   0.15247   1.000
    C130    C    0.16813   0.75571   0.15244   1.000
    C131    C    0.66807   0.25576   0.15247   1.000
    C132    C    0.66814   0.75571   0.15244   1.000
    C133    C    0.03887   0.25469   0.17505   1.000
    C134    C    0.03896   0.75468   0.17509   1.000
    C135    C    0.53889   0.25469   0.17505   1.000
    C136    C    0.53898   0.75468   0.17509   1.000
    C137    C    0.08193   0.00567   0.65239   1.000
    C138    C    0.08184   0.50572   0.65244   1.000
    C139    C    0.58195   0.00567   0.65239   1.000
    C140    C    0.58186   0.50572   0.65244   1.000
    C141    C    0.21111   0.00468   0.67504   1.000
    C142    C    0.21104   0.50463   0.67503   1.000
    C143    C    0.71113   0.00468   0.67504   1.000
    C144    C    0.71105   0.50463   0.67503   1.000
    C145    C    0.16811   0.49428   0.15248   1.000
    C146    C    0.16802   0.99434   0.15242   1.000
    C147    C    0.66813   0.49428   0.15248   1.000
    C148    C    0.66804   0.99434   0.15242   1.000
    C149    C    0.03893   0.49538   0.17506   1.000
    C150    C    0.03886   0.99534   0.17506   1.000
    C151    C    0.53895   0.49538   0.17506   1.000
    C152    C    0.53887   0.99534   0.17506   1.000
    C153    C    0.41805   0.25574   0.34760   1.000
    C154    C    0.41811   0.75569   0.34763   1.000
    C155    C    0.91806   0.25574   0.34760   1.000
    C156    C    0.91813   0.75569   0.34763   1.000
    C157    C    0.28886   0.25469   0.32501   1.000
    C158    C    0.28894   0.75467   0.32497   1.000
    C159    C    0.78887   0.25469   0.32501   1.000
    C160    C    0.78895   0.75467   0.32497   1.000
    C161    C    0.33182   0.24431   0.84760   1.000
    C162    C    0.33189   0.74426   0.84756   1.000
    C163    C    0.83183   0.24431   0.84760   1.000
    C164    C    0.83190   0.74426   0.84756   1.000
    C165    C    0.46099   0.24534   0.82495   1.000
    C166    C    0.46107   0.74533   0.82499   1.000
    C167    C    0.96100   0.24533   0.82495   1.000
    C168    C    0.96108   0.74533   0.82499   1.000
    C169    C    0.42901   0.37505   0.56817   1.000
    C170    C    0.42907   0.87495   0.56816   1.000
    C171    C    0.92902   0.37505   0.56817   1.000
    C172    C    0.92909   0.87495   0.56816   1.000
    C173    C    0.29922   0.37502   0.58839   1.000
    C174    C    0.29930   0.87495   0.58840   1.000
    C175    C    0.79924   0.37502   0.58839   1.000
    C176    C    0.82104   0.62497   0.06811   1.000
    C177    C    0.45072   0.12508   0.08839   1.000
    C178    C    0.45081   0.62500   0.08837   1.000
    C179    C    0.95074   0.12507   0.08839   1.000
    C180    C    0.95082   0.62500   0.08837   1.000
    C181    C    0.07087   0.12507   0.43180   1.000
    C182    C    0.07095   0.62497   0.43187   1.000
    C183    C    0.57089   0.12507   0.43180   1.000
    C184    C    0.57096   0.62497   0.43187   1.000
    C185    C    0.20065   0.12507   0.41160   1.000
    C186    C    0.20073   0.62500   0.41165   1.000
    C187    C    0.70066   0.12507   0.41160   1.000
    C188    C    0.70074   0.62500   0.41165   1.000
    C189    C    0.17893   0.37505   0.93193   1.000
    C190    C    0.17900   0.87494   0.93190   1.000
    C191    C    0.67894   0.37505   0.93193   1.000
    C192    C    0.67902   0.87494   0.93190   1.000
    C193    C    0.04914   0.37502   0.91167   1.000
    C194    C    0.04922   0.87494   0.91165   1.000
    C195    C    0.54916   0.37502   0.91167   1.000
    C196    C    0.54923   0.87494   0.91165   1.000
    N197    N    0.34752   0.46157   0.35930   1.000
    N198    N    0.34746   0.96157   0.35932   1.000
    N199    N    0.84753   0.46157   0.35930   1.000
    N200    N    0.84747   0.96157   0.35932   1.000
    N201    N    0.40389   0.04507   0.30875   1.000
    N202    N    0.40402   0.54503   0.30874   1.000
    N203    N    0.90391   0.04507   0.30875   1.000
    N204    N    0.90404   0.54503   0.30874   1.000
    N205    N    0.32043   0.04554   0.29408   1.000
    N206    N    0.32055   0.54556   0.29411   1.000
    N207    N    0.82044   0.04554   0.29408   1.000
    N208    N    0.82057   0.54556   0.29410   1.000
    N209    N    0.40248   0.03846   0.85929   1.000
    N210    N    0.40243   0.53847   0.85925   1.000
    N211    N    0.90249   0.03846   0.85929   1.000
    N212    N    0.90244   0.53847   0.85925   1.000
    N213    N    0.42948   0.95447   0.79408   1.000
    N214    N    0.92939   0.45445   0.79410   1.000
    N215    N    0.92950   0.95447   0.79408   1.000
    N216    N    0.15241   0.21157   0.64073   1.000
    N217    N    0.15247   0.71153   0.64070   1.000
    N218    N    0.65242   0.21157   0.64073   1.000
    N219    N    0.65248   0.71153   0.64070   1.000
    N220    N    0.09594   0.29503   0.69130   1.000
    N221    N    0.09600   0.79500   0.69130   1.000
    N222    N    0.59595   0.29503   0.69130   1.000
    N223    N    0.59602   0.79500   0.69130   1.000
    N224    N    0.17940   0.29552   0.70597   1.000
    N225    N    0.17948   0.79552   0.70593   1.000
    N226    N    0.67941   0.29552   0.70597   1.000
    N227    N    0.67949   0.79552   0.70593   1.000
    N228    N    0.09748   0.28850   0.14078   1.000
    N229    N    0.09756   0.78847   0.14078   1.000
    N230    N    0.59749   0.28850   0.14078   1.000
    N231    N    0.59757   0.78847   0.14078   1.000
    N232    N    0.15396   0.20502   0.19131   1.000
    N233    N    0.15404   0.70499   0.19131   1.000
    N234    N    0.65398   0.20502   0.19131   1.000
    N235    N    0.65406   0.70499   0.19130   1.000
    N236    N    0.07049   0.20450   0.20593   1.000
    N237    N    0.07059   0.70449   0.20598   1.000
    N238    N    0.57051   0.20450   0.20593   1.000
    N239    N    0.57060   0.70449   0.20590   1.000
    N240    N    0.15249   0.03844   0.64071   1.000
    N241    N    0.15243   0.53845   0.64074   1.000
    N242    N    0.65250   0.03844   0.64071   1.000
    N243    N    0.65245   0.53845   0.64074   1.000
    N244    N    0.09593   0.45499   0.69130   1.000
    N245    N    0.09605   0.95495   0.69129   1.000
    N246    N    0.59594   0.45499   0.69130   1.000
    N247    N    0.59606   0.95495   0.69129   1.000
    N248    N    0.17940   0.45446   0.70593   1.000
    N249    N    0.17952   0.95448   0.70590   1.000
    N250    N    0.67942   0.45446   0.70593   1.000
    N251    N    0.67953   0.95448   0.70590   1.000
    N252    N    0.09752   0.46154   0.14080   1.000
    N253    N    0.09747   0.96156   0.14075   1.000
    N254    N    0.59754   0.46154   0.14080   1.000
    N255    N    0.59748   0.96156   0.14075   1.000
    N256    N    0.15392   0.04507   0.19100   1.000
    N257    N    0.15405   0.54502   0.19130   1.000
    N258    N    0.65393   0.04507   0.19100   1.000
    N259    N    0.65406   0.54502   0.19130   1.000
    N260    N    0.07046   0.04555   0.20590   1.000
    N261    N    0.07058   0.54556   0.20594   1.000
    N262    N    0.57047   0.04555   0.20596   1.000
    N263    N    0.57059   0.54556   0.20594   1.000
    N264    N    0.34748   0.28849   0.35930   1.000
    N265    N    0.34754   0.78845   0.35930   1.000
    N266    N    0.84749   0.28849   0.35930   1.000
    N267    N    0.84756   0.78845   0.35930   1.000
    N268    N    0.40394   0.20502   0.30874   1.000
    N269    N    0.40402   0.70498   0.30870   1.000
    N270    N    0.90395   0.20502   0.30874   1.000
    N271    N    0.90403   0.70498   0.30870   1.000
    N272    N    0.32047   0.20450   0.29411   1.000
    N273    N    0.32056   0.70449   0.29406   1.000
    N274    N    0.82048   0.20450   0.29411   1.000
    N275    N    0.82057   0.70449   0.29406   1.000
    N276    N    0.40239   0.21154   0.85926   1.000
    N277    N    0.40247   0.71151   0.85925   1.000
    N278    N    0.90240   0.21154   0.85926   1.000
    N279    N    0.90248   0.71151   0.85925   1.000
    N280    N    0.34591   0.29503   0.80874   1.000
    N281    N    0.34598   0.79500   0.80873   1.000
    N282    N    0.84592   0.29503   0.80874   1.000
    N283    N    0.84599   0.79500   0.80873   1.000
    N284    N    0.42937   0.29553   0.79400   1.000
    N285    N    0.42945   0.79553   0.79411   1.000
    N286    N    0.92938   0.29553   0.79400   1.000
    N287    N    0.92946   0.79553   0.79411   1.000
    N288    N    0.41976   0.37504   0.63840   1.000
    N289    N    0.41984   0.87494   0.63840   1.000
    N290    N    0.91977   0.37504   0.63840   1.000
    N291    N    0.91986   0.87494   0.63840   1.000
    N292    N    0.33591   0.37502   0.65140   1.000
    N293    N    0.33600   0.87494   0.65143   1.000
    N294    N    0.83592   0.37502   0.65140   1.000
    N295    N    0.83601   0.87494   0.65143   1.000
    N296    N    0.35479   0.37504   0.53434   1.000
    N297    N    0.35485   0.87495   0.53434   1.000
    N298    N    0.85480   0.37504   0.53434   1.000
    N299    N    0.85486   0.87495   0.53434   1.000
    N300    N    0.33017   0.12508   0.13835   1.000
    N301    N    0.33027   0.62498   0.13835   1.000
    N302    N    0.83019   0.12508   0.13835   1.000
    N303    N    0.83028   0.62498   0.13835   1.000
    N304    N    0.41402   0.12508   0.15141   1.000
    N305    N    0.41412   0.62500   0.15100   1.000
    N306    N    0.91403   0.12508   0.15141   1.000
    N307    N    0.91414   0.62500   0.15100   1.000
    N308    N    0.39517   0.12507   0.03431   1.000
    N309    N    0.39525   0.62498   0.03430   1.000
    N310    N    0.89519   0.12507   0.03431   1.000
    N311    N    0.89526   0.62498   0.03430   1.000
    N312    N    0.08011   0.12507   0.36164   1.000
    N313    N    0.08020   0.62498   0.36164   1.000
    N314    N    0.58012   0.12507   0.36164   1.000
    N315    N    0.58021   0.62498   0.36164   1.000
    N316    N    0.16395   0.12507   0.34860   1.000
    N317    N    0.16405   0.62500   0.34860   1.000
    N318    N    0.66397   0.12507   0.34860   1.000
    N319    N    0.66406   0.62500   0.34860   1.000
    N320    N    0.14510   0.12506   0.46500   1.000
    N321    N    0.14517   0.62498   0.46570   1.000
    N322    N    0.64512   0.12506   0.46500   1.000
    N323    N    0.64518   0.62498   0.46570   1.000
    N324    N    0.16968   0.37503   0.86169   1.000
    N325    N    0.16977   0.87494   0.86160   1.000
    N326    N    0.66969   0.37503   0.86169   1.000
    N327    N    0.66978   0.87494   0.86160   1.000
    N328    N    0.08583   0.37502   0.84860   1.000
    N329    N    0.08592   0.87494   0.84863   1.000
    N330    N    0.58584   0.37502   0.84864   1.000
    N331    N    0.58594   0.87494   0.84863   1.000
    N332    N    0.10471   0.37504   0.96570   1.000
    N333    N    0.10477   0.87494   0.96572   1.000
    N334    N    0.60472   0.37504   0.96570   1.000
    N335    N    0.60478   0.87494   0.96572   1.000
loop_
    _geom_bond_atom_site_label_1
    _geom_bond_atom_site_label_2
    _geom_bond_distance
    _geom_bond_site_symmetry_2
    _ccdc_geom_bond_type
    N309   C70       1.36136      .   S
    N309   C178      1.36057      .   S
    N311   C176      1.36137      .   S
    N311   C180      1.36056      .   S
    N308   C69       1.36138      .   S
    N308   C177      1.36058      .   S
    N310   C71       1.36138      .   S
    N310   C179      1.36057      .   S
    H76    C69       1.08668      .   S
    H78    C71       1.08668      .   S
    H77    C70       1.08666      .   S
    H79    C176      1.08666      .   S
    C71    N302      1.33388      .   S
    C70    N301      1.33391      .   S
    C69    N300      1.33388      .   S
    C176   N303      1.33391      .   S
    H83    C178      1.08531      .   S
    H81    C180      1.08489  1_455   S
    H80    C179      1.08491  1_455   S
    H82    C177      1.08532      .   S
    C180   N307      1.32302      .   S
    C178   N305      1.32302      .   S
    C179   N306      1.32970      .   S
    C177   N304      1.32971      .   S
    H41    C146      1.08609      .   S
    H43    C148      1.08611      .   S
    H42    C147      1.08659      .   S
    H27    C132      1.08608      .   S
    H25    C130      1.08608      .   S
    H40    C145      1.08608      .   S
    H26    C131      1.08605      .   S
    H24    C129      1.08606      .   S
    N303   N307      1.37925      .   S
    N302   N306      1.38058      .   S
    N301   N305      1.37925      .   S
    N300   N304      1.38058      .   S
    N255   C148      1.36107      .   S
    N255   C152      1.35989      .   S
    N253   C146      1.36108      .   S
    N253   C150      1.35989      .   S
    N228   C129      1.36107      .   S
    N228   C133      1.35992      .   S
    N229   C130      1.36107      .   S
    N229   C134      1.35992      .   S
    N230   C131      1.36108      .   S
    N230   C135      1.35992      .   S
    N231   C132      1.36109      .   S
    N231   C136      1.35988      .   S
    N252   C145      1.36105      .   S
    N252   C149      1.35980      .   S
    N254   C147      1.36105      .   S
    N254   C151      1.35980      .   S
    C146   N256      1.33183  1_565   S
    C148   N258      1.33182  1_565   S
    C130   N233      1.33467      .   S
    C132   N235      1.33458      .   S
    C129   N232      1.33461      .   S
    C131   N234      1.33461      .   S
    C145   N257      1.33445      .   S
    C147   N259      1.33445      .   S
    C133   H30       1.08502  1_455   S
    C133   N236      1.32975      .   S
    C135   H28       1.08543      .   S
    C135   N238      1.32975      .   S
    C150   H47       1.08502  1_455   S
    C150   N260      1.32966  1_565   S
    C152   H45       1.08543      .   S
    C152   N262      1.33014  1_565   S
    C151   H44       1.08542      .   S
    C151   N263      1.32980      .   S
    C149   H46       1.08502  1_455   S
    C149   N261      1.32980      .   S
    C134   H31       1.08501  1_455   S
    C134   N237      1.32981      .   S
    C136   H29       1.08543      .   S
    C136   N239      1.32918      .   S
    N256   N260      1.38118      .   S
    N258   N262      1.38141      .   S
    N257   N261      1.38029      .   S
    N259   N263      1.38029      .   S
    N235   N239      1.37999      .   S
    N234   N238      1.38024      .   S
    N233   N237      1.38025      .   S
    N232   N236      1.38023      .   S
    N275   N271      1.38010      .   S
    N275   C160      1.32981      .   S
    N273   N269      1.38010      .   S
    N273   C158      1.32981      .   S
    N207   N203      1.38026      .   S
    N207   C112      1.33015  1_545   S
    N205   N201      1.38026      .   S
    N205   C110      1.33015  1_545   S
    N208   N204      1.38027      .   S
    N208   C111      1.32981      .   S
    N206   N202      1.38023      .   S
    N206   C109      1.32974      .   S
    N274   N270      1.38024      .   S
    N274   C159      1.32979      .   S
    N272   N268      1.38024      .   S
    N272   C157      1.32978      .   S
    N271   C156      1.33505      .   S
    N269   C154      1.33505      .   S
    N270   C155      1.33465      .   S
    N204   C107      1.33457      .   S
    N202   C105      1.33460      .   S
    N268   C153      1.33461      .   S
    N203   C108      1.33485  1_545   S
    N201   C106      1.33485  1_545   S
    H55    C160      1.08544      .   S
    H53    C158      1.08543      .   S
    H7     C112      1.08543      .   S
    H5     C110      1.08543      .   S
    H52    C157      1.08544      .   S
    H4     C109      1.08543      .   S
    H6     C111      1.08543      .   S
    H54    C159      1.08542      .   S
    C160   N267      1.35989      .   S
    C158   N265      1.35989      .   S
    C110   N198      1.35991      .   S
    C112   N200      1.35991      .   S
    C159   N266      1.35995      .   S
    C109   N197      1.35988      .   S
    C111   N199      1.35988      .   S
    C157   N264      1.35995      .   S
    C155   N266      1.36107      .   S
    C155   H50       1.08605      .   S
    C105   N197      1.36109      .   S
    C105   H0        1.08612      .   S
    C153   N264      1.36108      .   S
    C153   H48       1.08598      .   S
    C107   N199      1.36108      .   S
    C107   H2        1.08614      .   S
    C156   N267      1.36108      .   S
    C156   H51       1.08555      .   S
    C154   N265      1.36108      .   S
    C154   H49       1.08557      .   S
    C108   N200      1.36108      .   S
    C108   H3        1.04914      .   S
    C106   N198      1.36108      .   S
    C106   H1        1.04914      .   S
    N316   N312      1.38055      .   S
    N316   C185      1.32918      .   S
    N317   N313      1.38062      .   S
    N317   C186      1.32989      .   S
    N318   N314      1.38057      .   S
    N318   C187      1.32917      .   S
    N319   N315      1.38062      .   S
    N319   C188      1.32989      .   S
    N314   C183      1.33243      .   S
    N312   C181      1.33243      .   S
    N313   C182      1.33378      .   S
    N315   C184      1.33378      .   S
    C185   H88       1.08540      .   S
    C185   N320      1.35118      .   S
    C187   H90       1.08541      .   S
    C187   N322      1.35116      .   S
    C186   H89       1.08522      .   S
    C186   N321      1.36051      .   S
    C188   H91       1.08522      .   S
    C188   N323      1.36051      .   S
    C183   H86       1.08737      .   S
    C183   N322      1.35593      .   S
    C181   H84       1.08738      .   S
    C181   N320      1.35591      .   S
    C184   H87       1.08669      .   S
    C184   N323      1.36132      .   S
    C182   H85       1.08669      .   S
    C182   N321      1.36132      .   S
    N299   C172      1.36137      .   S
    N299   C68       1.36049      .   S
    N298   C171      1.36132      .   S
    N298   C175      1.36050      .   S
    N297   C170      1.36136      .   S
    N297   C174      1.36049      .   S
    N296   C169      1.36132      .   S
    N296   C173      1.36050      .   S
    H65    C170      1.08719      .   S
    H67    C172      1.08719      .   S
    H64    C169      1.08669      .   S
    H66    C171      1.08669      .   S
    C172   N291      1.33393      .   S
    C170   N289      1.33393      .   S
    C169   N288      1.33378      .   S
    C171   N290      1.33378      .   S
    H72    C173      1.08531      .   S
    H74    C175      1.08531      .   S
    H73    C174      1.08532      .   S
    H75    C68       1.08532      .   S
    C175   N294      1.32922      .   S
    C173   N292      1.32923      .   S
    C174   N293      1.32968      .   S
    C68    N295      1.32969      .   S
    H32    C137      1.08609      .   S
    H34    C139      1.08609      .   S
    H18    C123      1.08609      .   S
    H16    C121      1.08608      .   S
    H35    C140      1.08610      .   S
    H33    C138      1.08609      .   S
    H19    C124      1.08613      .   S
    H17    C122      1.08614      .   S
    N288   N292      1.38047      .   S
    N289   N293      1.38053      .   S
    N290   N294      1.38048      .   S
    N291   N295      1.38052      .   S
    N219   C124      1.36123      .   S
    N219   C128      1.36025      .   S
    N217   C122      1.36122      .   S
    N217   C126      1.36025      .   S
    N240   C137      1.36109      .   S
    N240   C141      1.35994      .   S
    N242   C139      1.36109      .   S
    N242   C143      1.35994      .   S
    N216   C121      1.36110      .   S
    N216   C125      1.35991      .   S
    N218   C123      1.36111      .   S
    N218   C127      1.35991      .   S
    N241   C138      1.36108      .   S
    N241   C142      1.35994      .   S
    N243   C140      1.36108      .   S
    N243   C144      1.35993      .   S
    C139   N247      1.33493  1_545   S
    C137   N245      1.33493  1_545   S
    C121   N220      1.33464      .   S
    C123   N222      1.33463      .   S
    C138   N244      1.33462      .   S
    C140   N246      1.33461      .   S
    C122   N221      1.33456      .   S
    C124   N223      1.33456      .   S
    C128   H23       1.08544      .   S
    C128   N227      1.32988      .   S
    C126   H21       1.08544      .   S
    C126   N225      1.32987      .   S
    C142   H37       1.08542      .   S
    C142   N248      1.32973      .   S
    C144   H39       1.08544      .   S
    C144   N250      1.32974      .   S
    C141   H36       1.08542      .   S
    C141   N249      1.32969  1_545   S
    C143   H38       1.08544      .   S
    C143   N251      1.32967  1_545   S
    C125   H20       1.08544      .   S
    C125   N224      1.32979      .   S
    C127   H22       1.08544      .   S
    C127   N226      1.32979      .   S
    N247   N251      1.38005      .   S
    N245   N249      1.38005      .   S
    N223   N227      1.38026      .   S
    N246   N250      1.38026      .   S
    N244   N248      1.38024      .   S
    N222   N226      1.38025      .   S
    N220   N224      1.38025      .   S
    N221   N225      1.38026      .   S
    N284   N280      1.38052      .   S
    N284   C165      1.33031      .   S
    N286   N282      1.38052      .   S
    N286   C167      1.33033      .   S
    N215   N103      1.38026      .   S
    N215   C119      1.33013  1_565   S
    N213   N101      1.38026      .   S
    N213   C117      1.33015  1_565   S
    N214   N102      1.38027      .   S
    N214   C120      1.32982      .   S
    N104   N100      1.38027      .   S
    N104   C118      1.32980      .   S
    N285   N281      1.38026      .   S
    N285   C166      1.32978      .   S
    N287   N283      1.38024      .   S
    N287   C168      1.32977      .   S
    N283   C164      1.33453      .   S
    N281   C162      1.33457      .   S
    N100   C114      1.33456      .   S
    N102   C116      1.33456      .   S
    N282   C163      1.33457      .   S
    N280   C161      1.33455      .   S
    N101   C113      1.33492  1_565   S
    N103   C115      1.33491  1_565   S
    H62    C165      1.08543      .   S
    H60    C167      1.08502  1_455   S
    H14    C117      1.08543      .   S
    H12    C119      1.08501  1_455   S
    H15    C118      1.08542      .   S
    H13    C120      1.08502  1_455   S
    H63    C166      1.08542      .   S
    H61    C168      1.08502  1_455   S
    C167   N278      1.35987      .   S
    C165   N276      1.35988      .   S
    C117   N209      1.35990      .   S
    C118   N210      1.35988      .   S
    C119   N211      1.35990      .   S
    C120   N212      1.35989      .   S
    C168   N279      1.35986      .   S
    C166   N277      1.35985      .   S
    C162   N277      1.36105      .   S
    C162   H57       1.08612      .   S
    C116   N212      1.36111      .   S
    C116   H11       1.08569      .   S
    C114   N210      1.36109      .   S
    C114   H9        1.08614      .   S
    C164   N279      1.36106      .   S
    C164   H59       1.08612      .   S
    C163   N278      1.36107      .   S
    C163   H58       1.08589      .   S
    C161   N276      1.36108      .   S
    C161   H56       1.08613      .   S
    C113   N209      1.36107      .   S
    C113   H8        1.08609      .   S
    C115   N211      1.36108      .   S
    C115   H10       1.08610      .   S
    N328   N324      1.38071      .   S
    N328   C193      1.33044      .   S
    N329   N325      1.38026      .   S
    N329   C194      1.32970      .   S
    N331   N327      1.38026      .   S
    N331   C196      1.32970      .   S
    N330   N326      1.38057      .   S
    N330   C195      1.32977      .   S
    N325   C190      1.33501      .   S
    N327   C192      1.33501      .   S
    N324   C189      1.33391      .   S
    N326   C191      1.33391      .   S
    C194   H99       1.08491  1_455   S
    C194   N333      1.36044      .   S
    C196   H97       1.08533      .   S
    C196   N335      1.36044      .   S
    C195   H96       1.08533      .   S
    C195   N334      1.36000      .   S
    C193   H98       1.08489  1_455   S
    C193   N332      1.36000      .   S
    C192   H95       1.08694      .   S
    C192   N335      1.36156      .   S
    C190   H93       1.08694      .   S
    C190   N333      1.36156      .   S
    C191   H94       1.08666      .   S
    C191   N334      1.36100      .   S
    C189   H92       1.08668      .   S
    C189   N332      1.36100      .   S
