# CIF file generated by openbabel 2.4.90, see http://openbabel.sf.net
data_I
_chemical_name_common ''
_cell_length_a 16.201
_cell_length_b 21.517
_cell_length_c 18.871
_cell_angle_alpha 90
_cell_angle_beta 90.009
_cell_angle_gamma 90
_space_group_name_H-M_alt 'P 1'
_space_group_name_Hall 'P 1'
loop_
    _symmetry_equiv_pos_as_xyz
    x,y,z
loop_
    _atom_site_label
    _atom_site_type_symbol
    _atom_site_fract_x
    _atom_site_fract_y
    _atom_site_fract_z
    _atom_site_occupancy
    Cd0     Cd   0.31199   0.87499   0.42065   1.000
    Cd1     Cd   0.81198   0.37504   0.42065   1.000
    Cd2     Cd   0.81201   0.87499   0.42065   1.000
    Cd3     Cd   0.43799   0.12502   0.92063   1.000
    Cd4     Cd   0.43804   0.62499   0.92060   1.000
    Cd5     Cd   0.93800   0.12502   0.92063   1.000
    Cd6     Cd   0.93805   0.62499   0.92061   1.000
    Cd7     Cd   0.18795   0.12502   0.57938   1.000
    Cd8     Cd   0.18799   0.62498   0.57939   1.000
    Cd9     Cd   0.68797   0.12502   0.57938   1.000
    Cd10    Cd   0.68800   0.62498   0.57939   1.000
    Cd11    Cd   0.06192   0.37503   0.07942   1.000
    Cd12    Cd   0.06196   0.87499   0.07941   1.000
    Cd13    Cd   0.56193   0.37503   0.07942   1.000
    Cd14    Cd   0.56197   0.87499   0.07941   1.000
    Cd15    Cd   0.49041   0.12503   0.26293   1.000
    Cd16    Cd   0.49051   0.62501   0.26293   1.000
    Cd17    Cd   0.99042   0.12503   0.26293   1.000
    Cd18    Cd   0.99052   0.62501   0.26293   1.000
    Cd19    Cd   0.25943   0.37501   0.76296   1.000
    Cd20    Cd   0.25952   0.87498   0.76295   1.000
    Cd21    Cd   0.75944   0.37501   0.76296   1.000
    Cd22    Cd   0.75953   0.87498   0.76295   1.000
    Cd23    Cd   0.00945   0.37500   0.73711   1.000
    Cd24    Cd   0.00954   0.87498   0.73711   1.000
    Cd25    Cd   0.50946   0.37500   0.73711   1.000
    Cd26    Cd   0.50955   0.87498   0.73711   1.000
    Cd27    Cd   0.24042   0.12504   0.23708   1.000
    Cd28    Cd   0.24052   0.62501   0.23708   1.000
    Cd29    Cd   0.74044   0.12504   0.23708   1.000
    Cd30    Cd   0.74054   0.62501   0.23708   1.000
    H31     H    0.47870   0.48090   0.36693   1.000
    Cd32    Cd   0.31197   0.37504   0.42065   1.000
    H33     H    0.47861   0.98099   0.36000   1.000
    H34     H    0.97871   0.48090   0.36693   1.000
    H35     H    0.97862   0.98099   0.36000   1.000
    H36     H    0.22395   0.48311   0.32372   1.000
    H37     H    0.22388   0.98302   0.32368   1.000
    H38     H    0.72396   0.48311   0.32372   1.000
    H39     H    0.72389   0.98302   0.32368   1.000
    H40     H    0.27133   0.01905   0.86695   1.000
    H41     H    0.27125   0.51916   0.86687   1.000
    H42     H    0.77134   0.01905   0.86695   1.000
    H43     H    0.77127   0.51916   0.86680   1.000
    H44     H    0.02603   0.01699   0.82367   1.000
    H45     H    0.02597   0.51691   0.82368   1.000
    H46     H    0.52604   0.01699   0.82367   1.000
    H47     H    0.52599   0.51691   0.82368   1.000
    H48     H    0.02125   0.23095   0.63306   1.000
    H49     H    0.02129   0.73088   0.63313   1.000
    H50     H    0.52126   0.23095   0.63306   1.000
    H51     H    0.52131   0.73088   0.63313   1.000
    H52     H    0.27597   0.23305   0.67638   1.000
    H53     H    0.27605   0.73305   0.67631   1.000
    H54     H    0.77599   0.23305   0.67638   1.000
    H55     H    0.77607   0.73305   0.67631   1.000
    H56     H    0.22865   0.26916   0.13318   1.000
    H57     H    0.22872   0.76910   0.13311   1.000
    H58     H    0.72866   0.26916   0.13318   1.000
    H59     H    0.72873   0.76910   0.13311   1.000
    H60     H    0.47392   0.26697   0.17634   1.000
    H61     H    0.47402   0.76698   0.17641   1.000
    H62     H    0.97394   0.26697   0.17634   1.000
    H63     H    0.97403   0.76698   0.17641   1.000
    H64     H    0.02134   0.01903   0.63304   1.000
    H65     H    0.02125   0.51912   0.63312   1.000
    H66     H    0.52135   0.01903   0.63304   1.000
    H67     H    0.52127   0.51912   0.63312   1.000
    H68     H    0.27607   0.01699   0.67635   1.000
    H69     H    0.27601   0.51690   0.67632   1.000
    H70     H    0.77608   0.01699   0.67635   1.000
    H71     H    0.77602   0.51690   0.67632   1.000
    H72     H    0.22870   0.48086   0.13318   1.000
    H73     H    0.22862   0.98097   0.13309   1.000
    H74     H    0.72871   0.48086   0.13310   1.000
    H75     H    0.72863   0.98097   0.13309   1.000
    H76     H    0.47398   0.48311   0.17636   1.000
    H77     H    0.47392   0.98302   0.17637   1.000
    H78     H    0.97399   0.48311   0.17636   1.000
    H79     H    0.97393   0.98302   0.17637   1.000
    H80     H    0.47865   0.26913   0.36690   1.000
    H81     H    0.47870   0.76907   0.36690   1.000
    H82     H    0.97866   0.26913   0.36691   1.000
    H83     H    0.97871   0.76907   0.36690   1.000
    H84     H    0.22390   0.26697   0.32370   1.000
    H85     H    0.22398   0.76697   0.32365   1.000
    H86     H    0.72391   0.26697   0.32372   1.000
    H87     H    0.72399   0.76697   0.32365   1.000
    H88     H    0.27123   0.23093   0.86694   1.000
    H89     H    0.27129   0.73085   0.86686   1.000
    H90     H    0.77125   0.23093   0.86690   1.000
    H91     H    0.77131   0.73085   0.86686   1.000
    H92     H    0.02593   0.23303   0.82363   1.000
    H93     H    0.02602   0.73305   0.82370   1.000
    H94     H    0.52594   0.23303   0.82363   1.000
    H95     H    0.52604   0.73305   0.82370   1.000
    H96     H    0.48856   0.37507   0.54168   1.000
    H97     H    0.48862   0.87494   0.54160   1.000
    H98     H    0.98857   0.37507   0.54168   1.000
    H99     H    0.98863   0.87495   0.54160   1.000
    C100    C    0.79931   0.87495   0.58840   1.000
    C101    C    0.32094   0.12507   0.06811   1.000
    C102    C    0.32103   0.62497   0.06811   1.000
    C103    C    0.82096   0.12507   0.06811   1.000
    H104    H    0.23283   0.37500   0.58071   1.000
    H105    H    0.23290   0.87495   0.58073   1.000
    H106    H    0.73285   0.37500   0.58071   1.000
    H107    H    0.73291   0.87495   0.58073   1.000
    H108    H    0.26140   0.12507   0.04159   1.000
    H109    H    0.26148   0.62495   0.04160   1.000
    H110    H    0.76141   0.12507   0.04159   1.000
    H111    H    0.76149   0.62495   0.04160   1.000
    H112    H    0.01711   0.12507   0.08074   1.000
    H113    H    0.01719   0.62502   0.08071   1.000
    H114    H    0.51712   0.12507   0.08074   1.000
    H115    H    0.51720   0.62502   0.08071   1.000
    H116    H    0.01133   0.12507   0.45838   1.000
    H117    H    0.01140   0.62495   0.45836   1.000
    H118    H    0.51134   0.12507   0.45838   1.000
    H119    H    0.51141   0.62495   0.45836   1.000
    H120    H    0.26705   0.12506   0.41930   1.000
    H121    H    0.26712   0.62502   0.41930   1.000
    H122    H    0.76706   0.12506   0.41930   1.000
    H123    H    0.76714   0.62502   0.41930   1.000
    H124    H    0.23848   0.37507   0.95844   1.000
    H125    H    0.23855   0.87494   0.95845   1.000
    H126    H    0.73849   0.37507   0.95844   1.000
    H127    H    0.73856   0.87494   0.95845   1.000
    H128    H    0.48276   0.37500   0.91933   1.000
    H129    H    0.48284   0.87494   0.91930   1.000
    H130    H    0.98278   0.37500   0.91933   1.000
    H131    H    0.98285   0.87494   0.91930   1.000
    N132    N    0.34591   0.45500   0.80873   1.000
    N133    N    0.34602   0.95495   0.80874   1.000
    N134    N    0.84592   0.45500   0.80873   1.000
    N135    N    0.84603   0.95495   0.80874   1.000
    N136    N    0.42937   0.45446   0.79410   1.000
    C137    C    0.41811   0.49430   0.34760   1.000
    C138    C    0.41801   0.99435   0.34764   1.000
    C139    C    0.91812   0.49430   0.34760   1.000
    C140    C    0.91802   0.99435   0.34764   1.000
    C141    C    0.28892   0.49539   0.32501   1.000
    C142    C    0.28883   0.99534   0.32499   1.000
    C143    C    0.78893   0.49539   0.32501   1.000
    C144    C    0.78885   0.99534   0.32499   1.000
    C145    C    0.33192   0.00568   0.84762   1.000
    C146    C    0.33184   0.50574   0.84756   1.000
    C147    C    0.83193   0.00568   0.84762   1.000
    C148    C    0.83185   0.50574   0.84756   1.000
    C149    C    0.46109   0.00468   0.82498   1.000
    C150    C    0.46102   0.50464   0.82498   1.000
    C151    C    0.96110   0.00468   0.82498   1.000
    C152    C    0.96103   0.50464   0.82498   1.000
    C153    C    0.08184   0.24432   0.65241   1.000
    C154    C    0.08189   0.74427   0.65245   1.000
    C155    C    0.58185   0.24432   0.65241   1.000
    C156    C    0.58191   0.74427   0.65245   1.000
    C157    C    0.21102   0.24535   0.67506   1.000
    C158    C    0.21109   0.74534   0.67502   1.000
    C159    C    0.71103   0.24535   0.67506   1.000
    C160    C    0.71110   0.74534   0.67502   1.000
    C161    C    0.16806   0.25576   0.15247   1.000
    C162    C    0.16813   0.75571   0.15244   1.000
    C163    C    0.66807   0.25576   0.15247   1.000
    C164    C    0.66814   0.75571   0.15244   1.000
    C165    C    0.03887   0.25469   0.17505   1.000
    C166    C    0.03896   0.75468   0.17509   1.000
    C167    C    0.53889   0.25469   0.17505   1.000
    C168    C    0.53898   0.75468   0.17509   1.000
    C169    C    0.08193   0.00567   0.65239   1.000
    C170    C    0.08184   0.50572   0.65244   1.000
    C171    C    0.58195   0.00567   0.65239   1.000
    C172    C    0.58186   0.50572   0.65244   1.000
    C173    C    0.21111   0.00468   0.67504   1.000
    C174    C    0.21104   0.50463   0.67503   1.000
    C175    C    0.71113   0.00468   0.67504   1.000
    C176    C    0.71105   0.50463   0.67503   1.000
    C177    C    0.16811   0.49428   0.15248   1.000
    C178    C    0.16802   0.99434   0.15242   1.000
    C179    C    0.66813   0.49428   0.15248   1.000
    C180    C    0.66804   0.99434   0.15242   1.000
    C181    C    0.03893   0.49538   0.17506   1.000
    C182    C    0.03886   0.99534   0.17506   1.000
    C183    C    0.53895   0.49538   0.17506   1.000
    C184    C    0.53887   0.99534   0.17506   1.000
    C185    C    0.41805   0.25574   0.34760   1.000
    C186    C    0.41811   0.75569   0.34763   1.000
    C187    C    0.91806   0.25574   0.34760   1.000
    C188    C    0.91813   0.75569   0.34763   1.000
    C189    C    0.28886   0.25469   0.32501   1.000
    C190    C    0.28894   0.75467   0.32497   1.000
    C191    C    0.78887   0.25469   0.32501   1.000
    C192    C    0.78895   0.75467   0.32497   1.000
    C193    C    0.33182   0.24431   0.84760   1.000
    C194    C    0.33189   0.74426   0.84756   1.000
    C195    C    0.83183   0.24431   0.84760   1.000
    C196    C    0.83190   0.74426   0.84756   1.000
    C197    C    0.46099   0.24534   0.82495   1.000
    C198    C    0.46107   0.74533   0.82499   1.000
    C199    C    0.96100   0.24533   0.82495   1.000
    C200    C    0.96108   0.74533   0.82499   1.000
    C201    C    0.42901   0.37505   0.56817   1.000
    C202    C    0.42907   0.87495   0.56816   1.000
    C203    C    0.92902   0.37505   0.56817   1.000
    C204    C    0.92909   0.87495   0.56816   1.000
    C205    C    0.29922   0.37502   0.58839   1.000
    C206    C    0.29930   0.87495   0.58840   1.000
    C207    C    0.79924   0.37502   0.58839   1.000
    C208    C    0.82104   0.62497   0.06811   1.000
    C209    C    0.45072   0.12508   0.08839   1.000
    C210    C    0.45081   0.62500   0.08837   1.000
    C211    C    0.95074   0.12507   0.08839   1.000
    C212    C    0.95082   0.62500   0.08837   1.000
    C213    C    0.07087   0.12507   0.43180   1.000
    C214    C    0.07095   0.62497   0.43187   1.000
    C215    C    0.57089   0.12507   0.43180   1.000
    C216    C    0.57096   0.62497   0.43187   1.000
    C217    C    0.20065   0.12507   0.41160   1.000
    C218    C    0.20073   0.62500   0.41165   1.000
    C219    C    0.70066   0.12507   0.41160   1.000
    C220    C    0.70074   0.62500   0.41165   1.000
    C221    C    0.17893   0.37505   0.93193   1.000
    C222    C    0.17900   0.87494   0.93190   1.000
    C223    C    0.67894   0.37505   0.93193   1.000
    C224    C    0.67902   0.87494   0.93190   1.000
    C225    C    0.04914   0.37502   0.91167   1.000
    C226    C    0.04922   0.87494   0.91165   1.000
    C227    C    0.54916   0.37502   0.91167   1.000
    C228    C    0.54923   0.87494   0.91165   1.000
    N229    N    0.34752   0.46157   0.35930   1.000
    N230    N    0.34746   0.96157   0.35932   1.000
    N231    N    0.84753   0.46157   0.35930   1.000
    N232    N    0.84747   0.96157   0.35932   1.000
    N233    N    0.40389   0.04507   0.30875   1.000
    N234    N    0.40402   0.54503   0.30874   1.000
    N235    N    0.90391   0.04507   0.30875   1.000
    N236    N    0.90404   0.54503   0.30874   1.000
    N237    N    0.32043   0.04554   0.29408   1.000
    N238    N    0.32055   0.54556   0.29411   1.000
    N239    N    0.82044   0.04554   0.29408   1.000
    N240    N    0.82057   0.54556   0.29410   1.000
    N241    N    0.40248   0.03846   0.85929   1.000
    N242    N    0.40243   0.53847   0.85925   1.000
    N243    N    0.90249   0.03846   0.85929   1.000
    N244    N    0.90244   0.53847   0.85925   1.000
    N245    N    0.42948   0.95447   0.79408   1.000
    N246    N    0.92939   0.45445   0.79410   1.000
    N247    N    0.92950   0.95447   0.79408   1.000
    N248    N    0.15241   0.21157   0.64073   1.000
    N249    N    0.15247   0.71153   0.64070   1.000
    N250    N    0.65242   0.21157   0.64073   1.000
    N251    N    0.65248   0.71153   0.64070   1.000
    N252    N    0.09594   0.29503   0.69130   1.000
    N253    N    0.09600   0.79500   0.69130   1.000
    N254    N    0.59595   0.29503   0.69130   1.000
    N255    N    0.59602   0.79500   0.69130   1.000
    N256    N    0.17940   0.29552   0.70597   1.000
    N257    N    0.17948   0.79552   0.70593   1.000
    N258    N    0.67941   0.29552   0.70597   1.000
    N259    N    0.67949   0.79552   0.70593   1.000
    N260    N    0.09748   0.28850   0.14078   1.000
    N261    N    0.09756   0.78847   0.14078   1.000
    N262    N    0.59749   0.28850   0.14078   1.000
    N263    N    0.59757   0.78847   0.14078   1.000
    N264    N    0.15396   0.20502   0.19131   1.000
    N265    N    0.15404   0.70499   0.19131   1.000
    N266    N    0.65398   0.20502   0.19131   1.000
    N267    N    0.65406   0.70499   0.19130   1.000
    N268    N    0.07049   0.20450   0.20593   1.000
    N269    N    0.07059   0.70449   0.20598   1.000
    N270    N    0.57051   0.20450   0.20593   1.000
    N271    N    0.57060   0.70449   0.20590   1.000
    N272    N    0.15249   0.03844   0.64071   1.000
    N273    N    0.15243   0.53845   0.64074   1.000
    N274    N    0.65250   0.03844   0.64071   1.000
    N275    N    0.65245   0.53845   0.64074   1.000
    N276    N    0.09593   0.45499   0.69130   1.000
    N277    N    0.09605   0.95495   0.69129   1.000
    N278    N    0.59594   0.45499   0.69130   1.000
    N279    N    0.59606   0.95495   0.69129   1.000
    N280    N    0.17940   0.45446   0.70593   1.000
    N281    N    0.17952   0.95448   0.70590   1.000
    N282    N    0.67942   0.45446   0.70593   1.000
    N283    N    0.67953   0.95448   0.70590   1.000
    N284    N    0.09752   0.46154   0.14080   1.000
    N285    N    0.09747   0.96156   0.14075   1.000
    N286    N    0.59754   0.46154   0.14080   1.000
    N287    N    0.59748   0.96156   0.14075   1.000
    N288    N    0.15392   0.04507   0.19100   1.000
    N289    N    0.15405   0.54502   0.19130   1.000
    N290    N    0.65393   0.04507   0.19100   1.000
    N291    N    0.65406   0.54502   0.19130   1.000
    N292    N    0.07046   0.04555   0.20590   1.000
    N293    N    0.07058   0.54556   0.20594   1.000
    N294    N    0.57047   0.04555   0.20596   1.000
    N295    N    0.57059   0.54556   0.20594   1.000
    N296    N    0.34748   0.28849   0.35930   1.000
    N297    N    0.34754   0.78845   0.35930   1.000
    N298    N    0.84749   0.28849   0.35930   1.000
    N299    N    0.84756   0.78845   0.35930   1.000
    N300    N    0.40394   0.20502   0.30874   1.000
    N301    N    0.40402   0.70498   0.30870   1.000
    N302    N    0.90395   0.20502   0.30874   1.000
    N303    N    0.90403   0.70498   0.30870   1.000
    N304    N    0.32047   0.20450   0.29411   1.000
    N305    N    0.32056   0.70449   0.29406   1.000
    N306    N    0.82048   0.20450   0.29411   1.000
    N307    N    0.82057   0.70449   0.29406   1.000
    N308    N    0.40239   0.21154   0.85926   1.000
    N309    N    0.40247   0.71151   0.85925   1.000
    N310    N    0.90240   0.21154   0.85926   1.000
    N311    N    0.90248   0.71151   0.85925   1.000
    N312    N    0.34591   0.29503   0.80874   1.000
    N313    N    0.34598   0.79500   0.80873   1.000
    N314    N    0.84592   0.29503   0.80874   1.000
    N315    N    0.84599   0.79500   0.80873   1.000
    N316    N    0.42937   0.29553   0.79400   1.000
    N317    N    0.42945   0.79553   0.79411   1.000
    N318    N    0.92938   0.29553   0.79400   1.000
    N319    N    0.92946   0.79553   0.79411   1.000
    N320    N    0.41976   0.37504   0.63840   1.000
    N321    N    0.41984   0.87494   0.63840   1.000
    N322    N    0.91977   0.37504   0.63840   1.000
    N323    N    0.91986   0.87494   0.63840   1.000
    N324    N    0.33591   0.37502   0.65140   1.000
    N325    N    0.33600   0.87494   0.65143   1.000
    N326    N    0.83592   0.37502   0.65140   1.000
    N327    N    0.83601   0.87494   0.65143   1.000
    N328    N    0.35479   0.37504   0.53434   1.000
    N329    N    0.35485   0.87495   0.53434   1.000
    N330    N    0.85480   0.37504   0.53434   1.000
    N331    N    0.85486   0.87495   0.53434   1.000
    N332    N    0.33017   0.12508   0.13835   1.000
    N333    N    0.33027   0.62498   0.13835   1.000
    N334    N    0.83019   0.12508   0.13835   1.000
    N335    N    0.83028   0.62498   0.13835   1.000
    N336    N    0.41402   0.12508   0.15141   1.000
    N337    N    0.41412   0.62500   0.15100   1.000
    N338    N    0.91403   0.12508   0.15141   1.000
    N339    N    0.91414   0.62500   0.15100   1.000
    N340    N    0.39517   0.12507   0.03431   1.000
    N341    N    0.39525   0.62498   0.03430   1.000
    N342    N    0.89519   0.12507   0.03431   1.000
    N343    N    0.89526   0.62498   0.03430   1.000
    N344    N    0.08011   0.12507   0.36164   1.000
    N345    N    0.08020   0.62498   0.36164   1.000
    N346    N    0.58012   0.12507   0.36164   1.000
    N347    N    0.58021   0.62498   0.36164   1.000
    N348    N    0.16395   0.12507   0.34860   1.000
    N349    N    0.16405   0.62500   0.34860   1.000
    N350    N    0.66397   0.12507   0.34860   1.000
    N351    N    0.66406   0.62500   0.34860   1.000
    N352    N    0.14510   0.12506   0.46500   1.000
    N353    N    0.14517   0.62498   0.46570   1.000
    N354    N    0.64512   0.12506   0.46500   1.000
    N355    N    0.64518   0.62498   0.46570   1.000
    N356    N    0.16968   0.37503   0.86169   1.000
    N357    N    0.16977   0.87494   0.86160   1.000
    N358    N    0.66969   0.37503   0.86169   1.000
    N359    N    0.66978   0.87494   0.86160   1.000
    N360    N    0.08583   0.37502   0.84860   1.000
    N361    N    0.08592   0.87494   0.84863   1.000
    N362    N    0.58584   0.37502   0.84864   1.000
    N363    N    0.58594   0.87494   0.84863   1.000
    N364    N    0.10471   0.37504   0.96570   1.000
    N365    N    0.10477   0.87494   0.96572   1.000
    N366    N    0.60472   0.37504   0.96570   1.000
    N367    N    0.60478   0.87494   0.96572   1.000
loop_
    _geom_bond_atom_site_label_1
    _geom_bond_atom_site_label_2
    _geom_bond_distance
    _geom_bond_site_symmetry_2
    _ccdc_geom_bond_type
    N341   C102      1.36136      .   S
    N341   C210      1.36057      .   S
    N341   Cd4       2.25494  1_554   S
    N343   C208      1.36137      .   S
    N343   C212      1.36056      .   S
    N343   Cd6       2.25476  1_554   S
    N340   C101      1.36138      .   S
    N340   C209      1.36058      .   S
    N340   Cd3       2.25470  1_554   S
    N342   C103      1.36138      .   S
    N342   C211      1.36057      .   S
    N342   Cd5       2.25470  1_554   S
    H108   C101      1.08668      .   S
    H110   C103      1.08668      .   S
    H109   C102      1.08666      .   S
    H111   C208      1.08666      .   S
    C103   N334      1.33388      .   S
    C102   N333      1.33391      .   S
    C101   N332      1.33388      .   S
    C208   N335      1.33391      .   S
    Cd12   N285      2.26713      .   S
    Cd12   N261      2.26702      .   S
    Cd12   N365      2.25487  1_554   S
    Cd14   N287      2.26713      .   S
    Cd14   N263      2.26701      .   S
    Cd14   N367      2.25487  1_554   S
    Cd11   N260      2.26695      .   S
    Cd11   N284      2.26697      .   S
    Cd11   N364      2.25531  1_554   S
    Cd13   N262      2.26694      .   S
    Cd13   N286      2.26699      .   S
    Cd13   N366      2.25531  1_554   S
    H115   C210      1.08531      .   S
    H113   C212      1.08489  1_455   S
    H112   C211      1.08491  1_455   S
    H114   C209      1.08532      .   S
    C212   N339      1.32302      .   S
    C210   N337      1.32302      .   S
    C211   N338      1.32970      .   S
    C209   N336      1.32971      .   S
    H73    C178      1.08609      .   S
    H75    C180      1.08611      .   S
    H74    C179      1.08659      .   S
    H59    C164      1.08608      .   S
    H57    C162      1.08608      .   S
    H72    C177      1.08608      .   S
    H58    C163      1.08605      .   S
    H56    C161      1.08606      .   S
    N335   N339      1.37925      .   S
    N335   Cd30      2.36352      .   S
    N334   N338      1.38058      .   S
    N334   Cd29      2.36354      .   S
    N333   N337      1.37925      .   S
    N333   Cd28      2.36352      .   S
    N332   N336      1.38058      .   S
    N332   Cd27      2.36354      .   S
    N287   C180      1.36107      .   S
    N287   C184      1.35989      .   S
    N285   C178      1.36108      .   S
    N285   C182      1.35989      .   S
    N260   C161      1.36107      .   S
    N260   C165      1.35992      .   S
    N261   C162      1.36107      .   S
    N261   C166      1.35992      .   S
    N262   C163      1.36108      .   S
    N262   C167      1.35992      .   S
    N263   C164      1.36109      .   S
    N263   C168      1.35988      .   S
    N284   C177      1.36105      .   S
    N284   C181      1.35980      .   S
    N286   C179      1.36105      .   S
    N286   C183      1.35980      .   S
    N337   Cd16      2.44788      .   S
    N339   Cd18      2.44788      .   S
    N336   Cd15      2.44120      .   S
    N338   Cd17      2.44120      .   S
    C178   N288      1.33183  1_565   S
    C180   N290      1.33182  1_565   S
    C162   N265      1.33467      .   S
    C164   N267      1.33458      .   S
    C161   N264      1.33461      .   S
    C163   N266      1.33461      .   S
    C177   N289      1.33445      .   S
    C179   N291      1.33445      .   S
    C165   H62       1.08502  1_455   S
    C165   N268      1.32975      .   S
    C167   H60       1.08543      .   S
    C167   N270      1.32975      .   S
    C182   H79       1.08502  1_455   S
    C182   N292      1.32966  1_565   S
    C184   H77       1.08543      .   S
    C184   N294      1.33014  1_565   S
    C183   H76       1.08542      .   S
    C183   N295      1.32980      .   S
    C181   H78       1.08502  1_455   S
    C181   N293      1.32980      .   S
    C166   H63       1.08501  1_455   S
    C166   N269      1.32981      .   S
    C168   H61       1.08543      .   S
    C168   N271      1.32918      .   S
    N288   N292      1.38118      .   S
    N288   Cd27      2.38343      .   S
    N290   N294      1.38141      .   S
    N290   Cd29      2.38343      .   S
    N289   N293      1.38029      .   S
    N289   Cd28      2.38142      .   S
    N291   N295      1.38029      .   S
    N291   Cd30      2.38142      .   S
    N267   N271      1.37999      .   S
    N267   Cd30      2.38126      .   S
    N266   N270      1.38024      .   S
    N266   Cd29      2.38108      .   S
    N265   N269      1.38025      .   S
    N265   Cd28      2.38121      .   S
    N264   N268      1.38023      .   S
    N264   Cd27      2.38109      .   S
    N271   Cd16      2.40142      .   S
    N292   Cd17      2.40114  1_455   S
    N270   Cd15      2.40101      .   S
    N268   Cd17      2.40078  1_455   S
    N293   Cd18      2.40042  1_455   S
    N295   Cd16      2.40065      .   S
    N294   Cd15      2.40087      .   S
    N269   Cd18      2.40053  1_455   S
    Cd27   N237      2.40052      .   S
    Cd27   N304      2.40066      .   S
    Cd27   N348      2.44225      .   S
    Cd28   N305      2.40039      .   S
    Cd28   N238      2.40027      .   S
    Cd28   N349      2.44229      .   S
    Cd29   N239      2.40052      .   S
    Cd29   N306      2.40064      .   S
    Cd29   N350      2.44225      .   S
    Cd30   N307      2.40039      .   S
    Cd30   N240      2.40020      .   S
    Cd30   N351      2.44229      .   S
    Cd15   N300      2.38157      .   S
    Cd15   N233      2.38183      .   S
    Cd15   N346      2.36251      .   S
    Cd18   N303      2.38133      .   S
    Cd18   N236      2.38175      .   S
    Cd18   N345      2.36218  1_655   S
    Cd17   N302      2.38156      .   S
    Cd17   N235      2.38183      .   S
    Cd17   N344      2.36226  1_655   S
    Cd16   N301      2.38133      .   S
    Cd16   N234      2.38175      .   S
    Cd16   N347      2.36244      .   S
    N307   N303      1.38010      .   S
    N307   C192      1.32981      .   S
    N305   N301      1.38010      .   S
    N305   C190      1.32981      .   S
    N239   N235      1.38026      .   S
    N239   C144      1.33015  1_545   S
    N237   N233      1.38026      .   S
    N237   C142      1.33015  1_545   S
    N240   N236      1.38027      .   S
    N240   C143      1.32981      .   S
    N238   N234      1.38023      .   S
    N238   C141      1.32974      .   S
    N306   N302      1.38024      .   S
    N306   C191      1.32979      .   S
    N304   N300      1.38024      .   S
    N304   C189      1.32978      .   S
    N303   C188      1.33505      .   S
    N301   C186      1.33505      .   S
    N302   C187      1.33465      .   S
    N236   C139      1.33457      .   S
    N234   C137      1.33460      .   S
    N300   C185      1.33461      .   S
    N235   C140      1.33485  1_545   S
    N233   C138      1.33485  1_545   S
    H87    C192      1.08544      .   S
    H85    C190      1.08543      .   S
    H39    C144      1.08543      .   S
    H37    C142      1.08543      .   S
    H84    C189      1.08544      .   S
    H36    C141      1.08543      .   S
    H38    C143      1.08543      .   S
    H86    C191      1.08542      .   S
    C192   N299      1.35989      .   S
    C190   N297      1.35989      .   S
    C142   N230      1.35991      .   S
    C144   N232      1.35991      .   S
    C191   N298      1.35995      .   S
    C141   N229      1.35988      .   S
    C143   N231      1.35988      .   S
    C189   N296      1.35995      .   S
    C187   N298      1.36107      .   S
    C187   H82       1.08605      .   S
    C137   N229      1.36109      .   S
    C137   H31       1.08612      .   S
    C185   N296      1.36108      .   S
    C185   H80       1.08598      .   S
    C139   N231      1.36108      .   S
    C139   H34       1.08614      .   S
    C188   N299      1.36108      .   S
    C188   H83       1.08555      .   S
    C186   N297      1.36108      .   S
    C186   H81       1.08557      .   S
    C140   N232      1.36108      .   S
    C140   H35       1.04914      .   S
    C138   N230      1.36108      .   S
    C138   H33       1.04914      .   S
    N348   N344      1.38055      .   S
    N348   C217      1.32918      .   S
    N349   N345      1.38062      .   S
    N349   C218      1.32989      .   S
    N350   N346      1.38057      .   S
    N350   C219      1.32917      .   S
    N351   N347      1.38062      .   S
    N351   C220      1.32989      .   S
    N297   Cd0       2.26714      .   S
    N296   Cd32      2.26704      .   S
    N298   Cd1       2.26704      .   S
    N299   Cd2       2.26714      .   S
    N231   Cd1       2.26706      .   S
    N229   Cd32      2.26705      .   S
    N232   Cd2       2.26719      .   S
    N230   Cd0       2.26719      .   S
    N346   C215      1.33243      .   S
    N344   C213      1.33243      .   S
    N345   C214      1.33378      .   S
    N347   C216      1.33378      .   S
    C217   H120      1.08540      .   S
    C217   N352      1.35118      .   S
    C219   H122      1.08541      .   S
    C219   N354      1.35116      .   S
    C218   H121      1.08522      .   S
    C218   N353      1.36051      .   S
    C220   H123      1.08522      .   S
    C220   N355      1.36051      .   S
    Cd32   N328      2.25472      .   S
    Cd0    N329      2.25487      .   S
    Cd2    N331      2.25487      .   S
    Cd1    N330      2.25472      .   S
    C215   H118      1.08737      .   S
    C215   N354      1.35593      .   S
    C213   H116      1.08738      .   S
    C213   N352      1.35591      .   S
    C216   H119      1.08669      .   S
    C216   N355      1.36132      .   S
    C214   H117      1.08669      .   S
    C214   N353      1.36132      .   S
    N354   Cd9       2.26725      .   S
    N352   Cd7       2.26725      .   S
    N355   Cd10      2.25470      .   S
    N353   Cd8       2.25471      .   S
    N331   C204      1.36137      .   S
    N331   C100      1.36049      .   S
    N330   C203      1.36132      .   S
    N330   C207      1.36050      .   S
    N329   C202      1.36136      .   S
    N329   C206      1.36049      .   S
    N328   C201      1.36132      .   S
    N328   C205      1.36050      .   S
    H97    C202      1.08719      .   S
    H99    C204      1.08719      .   S
    H96    C201      1.08669      .   S
    H98    C203      1.08669      .   S
    C204   N323      1.33393      .   S
    C202   N321      1.33393      .   S
    C201   N320      1.33378      .   S
    C203   N322      1.33378      .   S
    Cd7    N272      2.26720      .   S
    Cd7    N248      2.26714      .   S
    Cd9    N274      2.26720      .   S
    Cd9    N250      2.26714      .   S
    Cd8    N249      2.26666      .   S
    Cd8    N273      2.26705      .   S
    Cd10   N251      2.26665      .   S
    Cd10   N275      2.26705      .   S
    H104   C205      1.08531      .   S
    H106   C207      1.08531      .   S
    H105   C206      1.08532      .   S
    H107   C100      1.08532      .   S
    C207   N326      1.32922      .   S
    C205   N324      1.32923      .   S
    C206   N325      1.32968      .   S
    C100   N327      1.32969      .   S
    H64    C169      1.08609      .   S
    H66    C171      1.08609      .   S
    H50    C155      1.08609      .   S
    H48    C153      1.08608      .   S
    H67    C172      1.08610      .   S
    H65    C170      1.08609      .   S
    H51    C156      1.08613      .   S
    H49    C154      1.08614      .   S
    N320   N324      1.38047      .   S
    N320   Cd25      2.36242      .   S
    N321   N325      1.38053      .   S
    N321   Cd26      2.36246      .   S
    N322   N326      1.38048      .   S
    N322   Cd23      2.36216  1_655   S
    N323   N327      1.38052      .   S
    N323   Cd24      2.36221  1_655   S
    N251   C156      1.36123      .   S
    N251   C160      1.36025      .   S
    N249   C154      1.36122      .   S
    N249   C158      1.36025      .   S
    N272   C169      1.36109      .   S
    N272   C173      1.35994      .   S
    N274   C171      1.36109      .   S
    N274   C175      1.35994      .   S
    N248   C153      1.36110      .   S
    N248   C157      1.35991      .   S
    N250   C155      1.36111      .   S
    N250   C159      1.35991      .   S
    N273   C170      1.36108      .   S
    N273   C174      1.35994      .   S
    N275   C172      1.36108      .   S
    N275   C176      1.35993      .   S
    N324   Cd19      2.44296      .   S
    N326   Cd21      2.44295      .   S
    N325   Cd20      2.44229      .   S
    N327   Cd22      2.44229      .   S
    C171   N279      1.33493  1_545   S
    C169   N277      1.33493  1_545   S
    C153   N252      1.33464      .   S
    C155   N254      1.33463      .   S
    C170   N276      1.33462      .   S
    C172   N278      1.33461      .   S
    C154   N253      1.33456      .   S
    C156   N255      1.33456      .   S
    C160   H55       1.08544      .   S
    C160   N259      1.32988      .   S
    C158   H53       1.08544      .   S
    C158   N257      1.32987      .   S
    C174   H69       1.08542      .   S
    C174   N280      1.32973      .   S
    C176   H71       1.08544      .   S
    C176   N282      1.32974      .   S
    C173   H68       1.08542      .   S
    C173   N281      1.32969  1_545   S
    C175   H70       1.08544      .   S
    C175   N283      1.32967  1_545   S
    C157   H52       1.08544      .   S
    C157   N256      1.32979      .   S
    C159   H54       1.08544      .   S
    C159   N258      1.32979      .   S
    N279   N283      1.38005      .   S
    N279   Cd26      2.38183      .   S
    N277   N281      1.38005      .   S
    N277   Cd24      2.38184      .   S
    N255   N259      1.38026      .   S
    N255   Cd26      2.38159      .   S
    N278   N282      1.38026      .   S
    N278   Cd25      2.38178      .   S
    N276   N280      1.38024      .   S
    N276   Cd23      2.38179      .   S
    N254   N258      1.38025      .   S
    N254   Cd25      2.38160      .   S
    N252   N256      1.38025      .   S
    N252   Cd23      2.38160      .   S
    N253   N257      1.38026      .   S
    N253   Cd24      2.38160      .   S
    N283   Cd22      2.40095      .   S
    N281   Cd20      2.40094      .   S
    N257   Cd20      2.40050      .   S
    N259   Cd22      2.40050      .   S
    N282   Cd21      2.40025      .   S
    N280   Cd19      2.40026      .   S
    N256   Cd19      2.40046      .   S
    N258   Cd21      2.40046      .   S
    Cd23   N318      2.40006  1_455   S
    Cd23   N246      2.40039  1_455   S
    Cd23   N360      2.44071      .   S
    Cd25   N316      2.40029      .   S
    Cd25   N136      2.40063      .   S
    Cd25   N362      2.44136      .   S
    Cd26   N245      2.40086      .   S
    Cd26   N317      2.40096      .   S
    Cd26   N363      2.44121      .   S
    Cd24   N247      2.40065  1_455   S
    Cd24   N319      2.40075  1_455   S
    Cd24   N361      2.44121      .   S
    Cd22   N315      2.38115      .   S
    Cd22   N135      2.38141      .   S
    Cd22   N359      2.36236      .   S
    Cd20   N313      2.38113      .   S
    Cd20   N133      2.38141      .   S
    Cd20   N357      2.36236      .   S
    Cd19   N132      2.38135      .   S
    Cd19   N312      2.38121      .   S
    Cd19   N356      2.36353      .   S
    Cd21   N134      2.38135      .   S
    Cd21   N314      2.38121      .   S
    Cd21   N358      2.36353      .   S
    N316   N312      1.38052      .   S
    N316   C197      1.33031      .   S
    N318   N314      1.38052      .   S
    N318   C199      1.33033      .   S
    N247   N135      1.38026      .   S
    N247   C151      1.33013  1_565   S
    N245   N133      1.38026      .   S
    N245   C149      1.33015  1_565   S
    N246   N134      1.38027      .   S
    N246   C152      1.32982      .   S
    N136   N132      1.38027      .   S
    N136   C150      1.32980      .   S
    N317   N313      1.38026      .   S
    N317   C198      1.32978      .   S
    N319   N315      1.38024      .   S
    N319   C200      1.32977      .   S
    N315   C196      1.33453      .   S
    N313   C194      1.33457      .   S
    N132   C146      1.33456      .   S
    N134   C148      1.33456      .   S
    N314   C195      1.33457      .   S
    N312   C193      1.33455      .   S
    N133   C145      1.33492  1_565   S
    N135   C147      1.33491  1_565   S
    H94    C197      1.08543      .   S
    H92    C199      1.08502  1_455   S
    H46    C149      1.08543      .   S
    H44    C151      1.08501  1_455   S
    H47    C150      1.08542      .   S
    H45    C152      1.08502  1_455   S
    H95    C198      1.08542      .   S
    H93    C200      1.08502  1_455   S
    C199   N310      1.35987      .   S
    C197   N308      1.35988      .   S
    C149   N241      1.35990      .   S
    C150   N242      1.35988      .   S
    C151   N243      1.35990      .   S
    C152   N244      1.35989      .   S
    C200   N311      1.35986      .   S
    C198   N309      1.35985      .   S
    C194   N309      1.36105      .   S
    C194   H89       1.08612      .   S
    C148   N244      1.36111      .   S
    C148   H43       1.08569      .   S
    C146   N242      1.36109      .   S
    C146   H41       1.08614      .   S
    C196   N311      1.36106      .   S
    C196   H91       1.08612      .   S
    C195   N310      1.36107      .   S
    C195   H90       1.08589      .   S
    C193   N308      1.36108      .   S
    C193   H88       1.08613      .   S
    C145   N241      1.36107      .   S
    C145   H40       1.08609      .   S
    C147   N243      1.36108      .   S
    C147   H42       1.08610      .   S
    N360   N356      1.38071      .   S
    N360   C225      1.33044      .   S
    N361   N357      1.38026      .   S
    N361   C226      1.32970      .   S
    N363   N359      1.38026      .   S
    N363   C228      1.32970      .   S
    N362   N358      1.38057      .   S
    N362   C227      1.32977      .   S
    N311   Cd6       2.26694      .   S
    N242   Cd4       2.26675      .   S
    N244   Cd6       2.26683      .   S
    N309   Cd4       2.26685      .   S
    N308   Cd3       2.26708      .   S
    N310   Cd5       2.26708      .   S
    N241   Cd3       2.26710      .   S
    N243   Cd5       2.26710      .   S
    N357   C222      1.33501      .   S
    N359   C224      1.33501      .   S
    N356   C221      1.33391      .   S
    N358   C223      1.33391      .   S
    C226   H131      1.08491  1_455   S
    C226   N365      1.36044      .   S
    C228   H129      1.08533      .   S
    C228   N367      1.36044      .   S
    C227   H128      1.08533      .   S
    C227   N366      1.36000      .   S
    C225   H130      1.08489  1_455   S
    C225   N364      1.36000      .   S
    C224   H127      1.08694      .   S
    C224   N367      1.36156      .   S
    C222   H125      1.08694      .   S
    C222   N365      1.36156      .   S
    C223   H126      1.08666      .   S
    C223   N366      1.36100      .   S
    C221   H124      1.08668      .   S
    C221   N364      1.36100      .   S
