# CIF file generated by openbabel 2.4.90, see http://openbabel.sf.net
data_I
_chemical_name_common ''
_cell_length_a 16.201
_cell_length_b 21.517
_cell_length_c 18.871
_cell_angle_alpha 90
_cell_angle_beta 90.009
_cell_angle_gamma 90
_space_group_name_H-M_alt 'P 1'
_space_group_name_Hall 'P 1'
loop_
    _symmetry_equiv_pos_as_xyz
    x,y,z
loop_
    _atom_site_label
    _atom_site_type_symbol
    _atom_site_fract_x
    _atom_site_fract_y
    _atom_site_fract_z
    _atom_site_occupancy
    Cd0     Cd   0.31199   0.87499   0.42065   1.000
    Cd1     Cd   0.81198   0.37504   0.42065   1.000
    Cd2     Cd   0.81201   0.87499   0.42065   1.000
    Cd3     Cd   0.43799   0.12502   0.92063   1.000
    Cd4     Cd   0.43804   0.62499   0.92060   1.000
    Cd5     Cd   0.93800   0.12502   0.92063   1.000
    Cd6     Cd   0.93805   0.62499   0.92061   1.000
    Cd7     Cd   0.18795   0.12502   0.57938   1.000
    Cd8     Cd   0.18799   0.62498   0.57939   1.000
    Cd9     Cd   0.68797   0.12502   0.57938   1.000
    Cd10    Cd   0.68800   0.62498   0.57939   1.000
    Cd11    Cd   0.06192   0.37503   0.07942   1.000
    Cd12    Cd   0.06196   0.87499   0.07941   1.000
    Cd13    Cd   0.56193   0.37503   0.07942   1.000
    Cd14    Cd   0.56197   0.87499   0.07941   1.000
    Cd15    Cd   0.49041   0.12503   0.26293   1.000
    Cd16    Cd   0.49051   0.62501   0.26293   1.000
    Cd17    Cd   0.99042   0.12503   0.26293   1.000
    Cd18    Cd   0.99052   0.62501   0.26293   1.000
    Cd19    Cd   0.25943   0.37501   0.76296   1.000
    Cd20    Cd   0.25952   0.87498   0.76295   1.000
    Cd21    Cd   0.75944   0.37501   0.76296   1.000
    Cd22    Cd   0.75953   0.87498   0.76295   1.000
    Cd23    Cd   0.00945   0.37500   0.73711   1.000
    Cd24    Cd   0.00954   0.87498   0.73711   1.000
    Cd25    Cd   0.50946   0.37500   0.73711   1.000
    Cd26    Cd   0.50955   0.87498   0.73711   1.000
    Cd27    Cd   0.24042   0.12504   0.23708   1.000
    Cd28    Cd   0.24052   0.62501   0.23708   1.000
    Cd29    Cd   0.74044   0.12504   0.23708   1.000
    Cd30    Cd   0.74054   0.62501   0.23708   1.000
    Cd31    Cd   0.31197   0.37504   0.42065   1.000
