# CIF file generated by openbabel 2.4.90, see http://openbabel.sf.net
data_I
_chemical_name_common ''
_cell_length_a 16.201
_cell_length_b 21.517
_cell_length_c 18.871
_cell_angle_alpha 90
_cell_angle_beta 90.009
_cell_angle_gamma 90
_space_group_name_H-M_alt 'P 1'
_space_group_name_Hall 'P 1'
loop_
    _symmetry_equiv_pos_as_xyz
    x,y,z
loop_
    _atom_site_label
    _atom_site_type_symbol
    _atom_site_fract_x
    _atom_site_fract_y
    _atom_site_fract_z
    _atom_site_occupancy
    C0      C    0.31197   0.37504   0.42065   1.000
    C1      C    0.31199   0.87499   0.42065   1.000
    C2      C    0.81198   0.37504   0.42065   1.000
    C3      C    0.81201   0.87499   0.42065   1.000
    C4      C    0.43799   0.12502   0.92063   1.000
    C5      C    0.43804   0.62499   0.92060   1.000
    C6      C    0.93800   0.12502   0.92063   1.000
    C7      C    0.93805   0.62499   0.92061   1.000
    C8      C    0.18795   0.12502   0.57938   1.000
    C9      C    0.18799   0.62498   0.57939   1.000
    C10     C    0.68797   0.12502   0.57938   1.000
    C11     C    0.68800   0.62498   0.57939   1.000
    C12     C    0.06192   0.37503   0.07942   1.000
    C13     C    0.06196   0.87499   0.07941   1.000
    C14     C    0.56193   0.37503   0.07942   1.000
    C15     C    0.56197   0.87499   0.07941   1.000
    C16     C    0.49041   0.12503   0.26293   1.000
    C17     C    0.49051   0.62501   0.26293   1.000
    C18     C    0.99042   0.12503   0.26293   1.000
    C19     C    0.99052   0.62501   0.26293   1.000
    C20     C    0.25943   0.37501   0.76296   1.000
    C21     C    0.25952   0.87498   0.76295   1.000
    C22     C    0.75944   0.37501   0.76296   1.000
    C23     C    0.75953   0.87498   0.76295   1.000
    C24     C    0.00945   0.37500   0.73711   1.000
    C25     C    0.00954   0.87498   0.73711   1.000
    C26     C    0.50946   0.37500   0.73711   1.000
    C27     C    0.50955   0.87498   0.73711   1.000
    C28     C    0.24042   0.12504   0.23708   1.000
    C29     C    0.24052   0.62501   0.23708   1.000
    C30     C    0.74044   0.12504   0.23708   1.000
    C31     C    0.74054   0.62501   0.23708   1.000
    C32     C    0.47870   0.48090   0.36693   1.000
    C33     C    0.47861   0.98099   0.36000   1.000
    C34     C    0.97871   0.48090   0.36693   1.000
    C35     C    0.97862   0.98099   0.36000   1.000
    C36     C    0.22395   0.48311   0.32372   1.000
    C37     C    0.22388   0.98302   0.32368   1.000
    C38     C    0.72396   0.48311   0.32372   1.000
    C39     C    0.72389   0.98302   0.32368   1.000
    C40     C    0.27133   0.01905   0.86695   1.000
    C41     C    0.27125   0.51916   0.86687   1.000
    C42     C    0.77134   0.01905   0.86695   1.000
    C43     C    0.77127   0.51916   0.86680   1.000
    C44     C    0.02603   0.01699   0.82367   1.000
    C45     C    0.02597   0.51691   0.82368   1.000
    C46     C    0.52604   0.01699   0.82367   1.000
    C47     C    0.52599   0.51691   0.82368   1.000
    C48     C    0.02125   0.23095   0.63306   1.000
    C49     C    0.02129   0.73088   0.63313   1.000
    C50     C    0.52126   0.23095   0.63306   1.000
    C51     C    0.52131   0.73088   0.63313   1.000
    C52     C    0.27597   0.23305   0.67638   1.000
    C53     C    0.27605   0.73305   0.67631   1.000
    C54     C    0.77599   0.23305   0.67638   1.000
    C55     C    0.77607   0.73305   0.67631   1.000
    C56     C    0.22865   0.26916   0.13318   1.000
    C57     C    0.22872   0.76910   0.13311   1.000
    C58     C    0.72866   0.26916   0.13318   1.000
    C59     C    0.72873   0.76910   0.13311   1.000
    C60     C    0.47392   0.26697   0.17634   1.000
    C61     C    0.47402   0.76698   0.17641   1.000
    C62     C    0.97394   0.26697   0.17634   1.000
    C63     C    0.97403   0.76698   0.17641   1.000
    C64     C    0.02134   0.01903   0.63304   1.000
    C65     C    0.02125   0.51912   0.63312   1.000
    C66     C    0.52135   0.01903   0.63304   1.000
    C67     C    0.52127   0.51912   0.63312   1.000
    C68     C    0.27607   0.01699   0.67635   1.000
    C69     C    0.27601   0.51690   0.67632   1.000
    C70     C    0.77608   0.01699   0.67635   1.000
    C71     C    0.77602   0.51690   0.67632   1.000
    C72     C    0.22870   0.48086   0.13318   1.000
    C73     C    0.22862   0.98097   0.13309   1.000
    C74     C    0.72871   0.48086   0.13310   1.000
    C75     C    0.72863   0.98097   0.13309   1.000
    C76     C    0.47398   0.48311   0.17636   1.000
    C77     C    0.47392   0.98302   0.17637   1.000
    C78     C    0.97399   0.48311   0.17636   1.000
    C79     C    0.97393   0.98302   0.17637   1.000
    C80     C    0.47865   0.26913   0.36690   1.000
    C81     C    0.47870   0.76907   0.36690   1.000
    C82     C    0.97866   0.26913   0.36691   1.000
    C83     C    0.97871   0.76907   0.36690   1.000
    C84     C    0.22390   0.26697   0.32370   1.000
    C85     C    0.22398   0.76697   0.32365   1.000
    C86     C    0.72391   0.26697   0.32372   1.000
    C87     C    0.72399   0.76697   0.32365   1.000
    C88     C    0.27123   0.23093   0.86694   1.000
    C89     C    0.27129   0.73085   0.86686   1.000
    C90     C    0.77125   0.23093   0.86690   1.000
    C91     C    0.77131   0.73085   0.86686   1.000
    C92     C    0.02593   0.23303   0.82363   1.000
    C93     C    0.02602   0.73305   0.82370   1.000
    C94     C    0.52594   0.23303   0.82363   1.000
    C95     C    0.52604   0.73305   0.82370   1.000
    C96     C    0.48856   0.37507   0.54168   1.000
    C97     C    0.48862   0.87494   0.54160   1.000
    C98     C    0.98857   0.37507   0.54168   1.000
    C99     C    0.98863   0.87495   0.54160   1.000
    C100    C    0.23283   0.37500   0.58071   1.000
    C101    C    0.23290   0.87495   0.58073   1.000
    C102    C    0.73285   0.37500   0.58071   1.000
    C103    C    0.73291   0.87495   0.58073   1.000
    C104    C    0.26140   0.12507   0.04159   1.000
    C105    C    0.26148   0.62495   0.04160   1.000
    C106    C    0.76141   0.12507   0.04159   1.000
    C107    C    0.76149   0.62495   0.04160   1.000
    C108    C    0.01711   0.12507   0.08074   1.000
    C109    C    0.01719   0.62502   0.08071   1.000
    C110    C    0.51712   0.12507   0.08074   1.000
    C111    C    0.51720   0.62502   0.08071   1.000
    C112    C    0.01133   0.12507   0.45838   1.000
    C113    C    0.01140   0.62495   0.45836   1.000
    C114    C    0.51134   0.12507   0.45838   1.000
    C115    C    0.51141   0.62495   0.45836   1.000
    C116    C    0.26705   0.12506   0.41930   1.000
    C117    C    0.26712   0.62502   0.41930   1.000
    C118    C    0.76706   0.12506   0.41930   1.000
    C119    C    0.76714   0.62502   0.41930   1.000
    C120    C    0.23848   0.37507   0.95844   1.000
    C121    C    0.23855   0.87494   0.95845   1.000
    C122    C    0.73849   0.37507   0.95844   1.000
    C123    C    0.73856   0.87494   0.95845   1.000
    C124    C    0.48276   0.37500   0.91933   1.000
    C125    C    0.48284   0.87494   0.91930   1.000
    C126    C    0.98278   0.37500   0.91933   1.000
    C127    C    0.98285   0.87494   0.91930   1.000
    C128    C    0.41811   0.49430   0.34760   1.000
    C129    C    0.41801   0.99435   0.34764   1.000
    C130    C    0.91812   0.49430   0.34760   1.000
    C131    C    0.91802   0.99435   0.34764   1.000
    C132    C    0.28892   0.49539   0.32501   1.000
    C133    C    0.28883   0.99534   0.32499   1.000
    C134    C    0.78893   0.49539   0.32501   1.000
    C135    C    0.78885   0.99534   0.32499   1.000
    C136    C    0.33192   0.00568   0.84762   1.000
    C137    C    0.33184   0.50574   0.84756   1.000
    C138    C    0.83193   0.00568   0.84762   1.000
    C139    C    0.83185   0.50574   0.84756   1.000
    C140    C    0.46109   0.00468   0.82498   1.000
    C141    C    0.46102   0.50464   0.82498   1.000
    C142    C    0.96110   0.00468   0.82498   1.000
    C143    C    0.96103   0.50464   0.82498   1.000
    C144    C    0.08184   0.24432   0.65241   1.000
    C145    C    0.08189   0.74427   0.65245   1.000
    C146    C    0.58185   0.24432   0.65241   1.000
    C147    C    0.58191   0.74427   0.65245   1.000
    C148    C    0.21102   0.24535   0.67506   1.000
    C149    C    0.21109   0.74534   0.67502   1.000
    C150    C    0.71103   0.24535   0.67506   1.000
    C151    C    0.71110   0.74534   0.67502   1.000
    C152    C    0.16806   0.25576   0.15247   1.000
    C153    C    0.16813   0.75571   0.15244   1.000
    C154    C    0.66807   0.25576   0.15247   1.000
    C155    C    0.66814   0.75571   0.15244   1.000
    C156    C    0.03887   0.25469   0.17505   1.000
    C157    C    0.03896   0.75468   0.17509   1.000
    C158    C    0.53889   0.25469   0.17505   1.000
    C159    C    0.53898   0.75468   0.17509   1.000
    C160    C    0.08193   0.00567   0.65239   1.000
    C161    C    0.08184   0.50572   0.65244   1.000
    C162    C    0.58195   0.00567   0.65239   1.000
    C163    C    0.58186   0.50572   0.65244   1.000
    C164    C    0.21111   0.00468   0.67504   1.000
    C165    C    0.21104   0.50463   0.67503   1.000
    C166    C    0.71113   0.00468   0.67504   1.000
    C167    C    0.71105   0.50463   0.67503   1.000
    C168    C    0.16811   0.49428   0.15248   1.000
    C169    C    0.16802   0.99434   0.15242   1.000
    C170    C    0.66813   0.49428   0.15248   1.000
    C171    C    0.66804   0.99434   0.15242   1.000
    C172    C    0.03893   0.49538   0.17506   1.000
    C173    C    0.03886   0.99534   0.17506   1.000
    C174    C    0.53895   0.49538   0.17506   1.000
    C175    C    0.53887   0.99534   0.17506   1.000
    C176    C    0.41805   0.25574   0.34760   1.000
    C177    C    0.41811   0.75569   0.34763   1.000
    C178    C    0.91806   0.25574   0.34760   1.000
    C179    C    0.91813   0.75569   0.34763   1.000
    C180    C    0.28886   0.25469   0.32501   1.000
    C181    C    0.28894   0.75467   0.32497   1.000
    C182    C    0.78887   0.25469   0.32501   1.000
    C183    C    0.78895   0.75467   0.32497   1.000
    C184    C    0.33182   0.24431   0.84760   1.000
    C185    C    0.33189   0.74426   0.84756   1.000
    C186    C    0.83183   0.24431   0.84760   1.000
    C187    C    0.83190   0.74426   0.84756   1.000
    C188    C    0.46099   0.24534   0.82495   1.000
    C189    C    0.46107   0.74533   0.82499   1.000
    C190    C    0.96100   0.24533   0.82495   1.000
    C191    C    0.96108   0.74533   0.82499   1.000
    C192    C    0.42901   0.37505   0.56817   1.000
    C193    C    0.42907   0.87495   0.56816   1.000
    C194    C    0.92902   0.37505   0.56817   1.000
    C195    C    0.92909   0.87495   0.56816   1.000
    C196    C    0.29922   0.37502   0.58839   1.000
    C197    C    0.29930   0.87495   0.58840   1.000
    C198    C    0.79924   0.37502   0.58839   1.000
    C199    C    0.79931   0.87495   0.58840   1.000
    C200    C    0.32094   0.12507   0.06811   1.000
    C201    C    0.32103   0.62497   0.06811   1.000
    C202    C    0.82096   0.12507   0.06811   1.000
    C203    C    0.82104   0.62497   0.06811   1.000
    C204    C    0.45072   0.12508   0.08839   1.000
    C205    C    0.45081   0.62500   0.08837   1.000
    C206    C    0.95074   0.12507   0.08839   1.000
    C207    C    0.95082   0.62500   0.08837   1.000
    C208    C    0.07087   0.12507   0.43180   1.000
    C209    C    0.07095   0.62497   0.43187   1.000
    C210    C    0.57089   0.12507   0.43180   1.000
    C211    C    0.57096   0.62497   0.43187   1.000
    C212    C    0.20065   0.12507   0.41160   1.000
    C213    C    0.20073   0.62500   0.41165   1.000
    C214    C    0.70066   0.12507   0.41160   1.000
    C215    C    0.70074   0.62500   0.41165   1.000
    C216    C    0.17893   0.37505   0.93193   1.000
    C217    C    0.17900   0.87494   0.93190   1.000
    C218    C    0.67894   0.37505   0.93193   1.000
    C219    C    0.67902   0.87494   0.93190   1.000
    C220    C    0.04914   0.37502   0.91167   1.000
    C221    C    0.04922   0.87494   0.91165   1.000
    C222    C    0.54916   0.37502   0.91167   1.000
    C223    C    0.54923   0.87494   0.91165   1.000
    C224    C    0.13802   0.37503   0.42316   1.000
    C225    C    0.13804   0.87497   0.42317   1.000
    C226    C    0.63803   0.37503   0.42316   1.000
    C227    C    0.63806   0.87497   0.42317   1.000
    C228    C    0.11193   0.12504   0.92301   1.000
    C229    C    0.11198   0.62499   0.92299   1.000
    C230    C    0.61194   0.12504   0.92301   1.000
    C231    C    0.61199   0.62499   0.92299   1.000
    C232    C    0.36190   0.12505   0.57686   1.000
    C233    C    0.36194   0.62499   0.57688   1.000
    C234    C    0.86192   0.12505   0.57686   1.000
    C235    C    0.86195   0.62499   0.57688   1.000
    C236    C    0.38798   0.37503   0.07705   1.000
    C237    C    0.38802   0.87497   0.07703   1.000
    C238    C    0.88799   0.37503   0.07705   1.000
    C239    C    0.88803   0.87497   0.07703   1.000
    C240    C    0.34752   0.46157   0.35930   1.000
    C241    C    0.34746   0.96157   0.35932   1.000
    C242    C    0.84753   0.46157   0.35930   1.000
    C243    C    0.84747   0.96157   0.35932   1.000
    C244    C    0.40389   0.04507   0.30875   1.000
    C245    C    0.40402   0.54503   0.30874   1.000
    C246    C    0.90391   0.04507   0.30875   1.000
    C247    C    0.90404   0.54503   0.30874   1.000
    C248    C    0.32043   0.04554   0.29408   1.000
    C249    C    0.32055   0.54556   0.29411   1.000
    C250    C    0.82044   0.04554   0.29408   1.000
    C251    C    0.82057   0.54556   0.29410   1.000
    C252    C    0.40248   0.03846   0.85929   1.000
    C253    C    0.40243   0.53847   0.85925   1.000
    C254    C    0.90249   0.03846   0.85929   1.000
    C255    C    0.90244   0.53847   0.85925   1.000
    C256    C    0.34591   0.45500   0.80873   1.000
    C257    C    0.34602   0.95495   0.80874   1.000
    C258    C    0.84592   0.45500   0.80873   1.000
    C259    C    0.84603   0.95495   0.80874   1.000
    C260    C    0.42937   0.45446   0.79410   1.000
    C261    C    0.42948   0.95447   0.79408   1.000
    C262    C    0.92939   0.45445   0.79410   1.000
    C263    C    0.92950   0.95447   0.79408   1.000
    C264    C    0.15241   0.21157   0.64073   1.000
    C265    C    0.15247   0.71153   0.64070   1.000
    C266    C    0.65242   0.21157   0.64073   1.000
    C267    C    0.65248   0.71153   0.64070   1.000
    C268    C    0.09594   0.29503   0.69130   1.000
    C269    C    0.09600   0.79500   0.69130   1.000
    C270    C    0.59595   0.29503   0.69130   1.000
    C271    C    0.59602   0.79500   0.69130   1.000
    C272    C    0.17940   0.29552   0.70597   1.000
    C273    C    0.17948   0.79552   0.70593   1.000
    C274    C    0.67941   0.29552   0.70597   1.000
    C275    C    0.67949   0.79552   0.70593   1.000
    C276    C    0.09748   0.28850   0.14078   1.000
    C277    C    0.09756   0.78847   0.14078   1.000
    C278    C    0.59749   0.28850   0.14078   1.000
    C279    C    0.59757   0.78847   0.14078   1.000
    C280    C    0.15396   0.20502   0.19131   1.000
    C281    C    0.15404   0.70499   0.19131   1.000
    C282    C    0.65398   0.20502   0.19131   1.000
    C283    C    0.65406   0.70499   0.19130   1.000
    C284    C    0.07049   0.20450   0.20593   1.000
    C285    C    0.07059   0.70449   0.20598   1.000
    C286    C    0.57051   0.20450   0.20593   1.000
    C287    C    0.57060   0.70449   0.20590   1.000
    C288    C    0.15249   0.03844   0.64071   1.000
    C289    C    0.15243   0.53845   0.64074   1.000
    C290    C    0.65250   0.03844   0.64071   1.000
    C291    C    0.65245   0.53845   0.64074   1.000
    C292    C    0.09593   0.45499   0.69130   1.000
    C293    C    0.09605   0.95495   0.69129   1.000
    C294    C    0.59594   0.45499   0.69130   1.000
    C295    C    0.59606   0.95495   0.69129   1.000
    C296    C    0.17940   0.45446   0.70593   1.000
    C297    C    0.17952   0.95448   0.70590   1.000
    C298    C    0.67942   0.45446   0.70593   1.000
    C299    C    0.67953   0.95448   0.70590   1.000
    C300    C    0.09752   0.46154   0.14080   1.000
    C301    C    0.09747   0.96156   0.14075   1.000
    C302    C    0.59754   0.46154   0.14080   1.000
    C303    C    0.59748   0.96156   0.14075   1.000
    C304    C    0.15392   0.04507   0.19100   1.000
    C305    C    0.15405   0.54502   0.19130   1.000
    C306    C    0.65393   0.04507   0.19100   1.000
    C307    C    0.65406   0.54502   0.19130   1.000
    C308    C    0.07046   0.04555   0.20590   1.000
    C309    C    0.07058   0.54556   0.20594   1.000
    C310    C    0.57047   0.04555   0.20596   1.000
    C311    C    0.57059   0.54556   0.20594   1.000
    C312    C    0.34748   0.28849   0.35930   1.000
    C313    C    0.34754   0.78845   0.35930   1.000
    C314    C    0.84749   0.28849   0.35930   1.000
    C315    C    0.84756   0.78845   0.35930   1.000
    C316    C    0.40394   0.20502   0.30874   1.000
    C317    C    0.40402   0.70498   0.30870   1.000
    C318    C    0.90395   0.20502   0.30874   1.000
    C319    C    0.90403   0.70498   0.30870   1.000
    C320    C    0.32047   0.20450   0.29411   1.000
    C321    C    0.32056   0.70449   0.29406   1.000
    C322    C    0.82048   0.20450   0.29411   1.000
    C323    C    0.82057   0.70449   0.29406   1.000
    C324    C    0.40239   0.21154   0.85926   1.000
    C325    C    0.40247   0.71151   0.85925   1.000
    C326    C    0.90240   0.21154   0.85926   1.000
    C327    C    0.90248   0.71151   0.85925   1.000
    C328    C    0.34591   0.29503   0.80874   1.000
    C329    C    0.34598   0.79500   0.80873   1.000
    C330    C    0.84592   0.29503   0.80874   1.000
    C331    C    0.84599   0.79500   0.80873   1.000
    C332    C    0.42937   0.29553   0.79400   1.000
    C333    C    0.42945   0.79553   0.79411   1.000
    C334    C    0.92938   0.29553   0.79400   1.000
    C335    C    0.92946   0.79553   0.79411   1.000
    C336    C    0.41976   0.37504   0.63840   1.000
    C337    C    0.41984   0.87494   0.63840   1.000
    C338    C    0.91977   0.37504   0.63840   1.000
    C339    C    0.91986   0.87494   0.63840   1.000
    C340    C    0.33591   0.37502   0.65140   1.000
    C341    C    0.33600   0.87494   0.65143   1.000
    C342    C    0.83592   0.37502   0.65140   1.000
    C343    C    0.83601   0.87494   0.65143   1.000
    C344    C    0.35479   0.37504   0.53434   1.000
    C345    C    0.35485   0.87495   0.53434   1.000
    C346    C    0.85480   0.37504   0.53434   1.000
    C347    C    0.85486   0.87495   0.53434   1.000
    C348    C    0.33017   0.12508   0.13835   1.000
    C349    C    0.33027   0.62498   0.13835   1.000
    C350    C    0.83019   0.12508   0.13835   1.000
    C351    C    0.83028   0.62498   0.13835   1.000
    C352    C    0.41402   0.12508   0.15141   1.000
    C353    C    0.41412   0.62500   0.15100   1.000
    C354    C    0.91403   0.12508   0.15141   1.000
    C355    C    0.91414   0.62500   0.15100   1.000
    C356    C    0.39517   0.12507   0.03431   1.000
    C357    C    0.39525   0.62498   0.03430   1.000
    C358    C    0.89519   0.12507   0.03431   1.000
    C359    C    0.89526   0.62498   0.03430   1.000
    C360    C    0.08011   0.12507   0.36164   1.000
    C361    C    0.08020   0.62498   0.36164   1.000
    C362    C    0.58012   0.12507   0.36164   1.000
    C363    C    0.58021   0.62498   0.36164   1.000
    C364    C    0.16395   0.12507   0.34860   1.000
    C365    C    0.16405   0.62500   0.34860   1.000
    C366    C    0.66397   0.12507   0.34860   1.000
    C367    C    0.66406   0.62500   0.34860   1.000
    C368    C    0.14510   0.12506   0.46500   1.000
    C369    C    0.14517   0.62498   0.46570   1.000
    C370    C    0.64512   0.12506   0.46500   1.000
    C371    C    0.64518   0.62498   0.46570   1.000
    C372    C    0.16968   0.37503   0.86169   1.000
    C373    C    0.16977   0.87494   0.86160   1.000
    C374    C    0.66969   0.37503   0.86169   1.000
    C375    C    0.66978   0.87494   0.86160   1.000
    C376    C    0.08583   0.37502   0.84860   1.000
    C377    C    0.08592   0.87494   0.84863   1.000
    C378    C    0.58584   0.37502   0.84864   1.000
    C379    C    0.58594   0.87494   0.84863   1.000
    C380    C    0.10471   0.37504   0.96570   1.000
    C381    C    0.10477   0.87494   0.96572   1.000
    C382    C    0.60472   0.37504   0.96570   1.000
    C383    C    0.60478   0.87494   0.96572   1.000
    O384    O    0.35814   0.62497   0.05120   1.000
    O385    O    0.42303   0.62499   0.06133   1.000
    O386    O    0.41664   0.62498   0.97745   1.000
    O387    O    0.85815   0.62497   0.05120   1.000
    O388    O    0.92304   0.62499   0.06133   1.000
    O389    O    0.91666   0.62498   0.97745   1.000
    O390    O    0.35806   0.12507   0.05121   1.000
    O391    O    0.42295   0.12507   0.06135   1.000
    O392    O    0.41658   0.12505   0.97747   1.000
    O393    O    0.85807   0.12507   0.05121   1.000
    O394    O    0.92296   0.12507   0.06135   1.000
    O395    O    0.91659   0.12505   0.97747   1.000
    O396    O    0.29117   0.12507   0.05485   1.000
    O397    O    0.79118   0.12507   0.05485   1.000
    O398    O    0.29125   0.62496   0.05486   1.000
    O399    O    0.79126   0.62496   0.05486   1.000
    O400    O    0.82557   0.12507   0.10323   1.000
    O401    O    0.32565   0.62498   0.10323   1.000
    O402    O    0.32556   0.12507   0.10323   1.000
    O403    O    0.82566   0.62498   0.10323   1.000
    O404    O    0.47500   0.87498   0.07822   1.000
    O405    O    0.97500   0.87498   0.07822   1.000
    O406    O    0.97495   0.37503   0.07823   1.000
    O407    O    0.47495   0.37503   0.07823   1.000
    O408    O    0.07971   0.91828   0.11008   1.000
    O409    O    0.07976   0.83173   0.11009   1.000
    O410    O    0.08337   0.87497   0.02256   1.000
    O411    O    0.57973   0.91828   0.11008   1.000
    O412    O    0.57977   0.83173   0.11009   1.000
    O413    O    0.58338   0.87497   0.02256   1.000
    O414    O    0.07970   0.33177   0.11010   1.000
    O415    O    0.07972   0.41829   0.11011   1.000
    O416    O    0.08331   0.37504   0.02256   1.000
    O417    O    0.57971   0.33177   0.11010   1.000
    O418    O    0.57973   0.41829   0.11011   1.000
    O419    O    0.58332   0.37504   0.02256   1.000
    O420    O    0.48401   0.62501   0.08454   1.000
    O421    O    0.98401   0.62501   0.08454   1.000
    O422    O    0.98392   0.12507   0.08456   1.000
    O423    O    0.48392   0.12508   0.08456   1.000
    O424    O    0.93248   0.62500   0.11968   1.000
    O425    O    0.43247   0.62500   0.11968   1.000
    O426    O    0.93239   0.12508   0.11990   1.000
    O427    O    0.43237   0.12508   0.11990   1.000
    O428    O    0.19832   0.98765   0.14275   1.000
    O429    O    0.69833   0.98765   0.14275   1.000
    O430    O    0.69842   0.48757   0.14279   1.000
    O431    O    0.69844   0.76240   0.14277   1.000
    O432    O    0.19842   0.76240   0.14277   1.000
    O433    O    0.19841   0.48757   0.14283   1.000
    O434    O    0.69837   0.26246   0.14282   1.000
    O435    O    0.19835   0.26246   0.14282   1.000
    O436    O    0.87221   0.62499   0.14467   1.000
    O437    O    0.78541   0.62500   0.18771   1.000
    O438    O    0.87211   0.12508   0.14488   1.000
    O439    O    0.78531   0.12506   0.18771   1.000
    O440    O    0.37220   0.62499   0.14467   1.000
    O441    O    0.28540   0.62500   0.18771   1.000
    O442    O    0.37210   0.12508   0.14488   1.000
    O443    O    0.28530   0.12506   0.18771   1.000
    O444    O    0.63276   0.97795   0.14658   1.000
    O445    O    0.56817   0.97845   0.15790   1.000
    O446    O    0.13275   0.97795   0.14658   1.000
    O447    O    0.06816   0.97845   0.15790   1.000
    O448    O    0.13277   0.27213   0.14662   1.000
    O449    O    0.06818   0.27160   0.15791   1.000
    O450    O    0.13284   0.77209   0.14661   1.000
    O451    O    0.06826   0.77158   0.15793   1.000
    O452    O    0.63278   0.27213   0.14662   1.000
    O453    O    0.56819   0.27160   0.15791   1.000
    O454    O    0.63286   0.77209   0.14661   1.000
    O455    O    0.56827   0.77158   0.15793   1.000
    O456    O    0.13282   0.47791   0.14664   1.000
    O457    O    0.06823   0.47846   0.15793   1.000
    O458    O    0.63283   0.47791   0.14664   1.000
    O459    O    0.56824   0.47846   0.15793   1.000
    O460    O    0.45231   0.62501   0.20696   1.000
    O461    O    0.95233   0.62501   0.20696   1.000
    O462    O    0.45221   0.12506   0.20717   1.000
    O463    O    0.95223   0.12506   0.20717   1.000
    O464    O    0.16097   0.01970   0.17171   1.000
    O465    O    0.66099   0.01970   0.17171   1.000
    O466    O    0.16109   0.73035   0.17187   1.000
    O467    O    0.66110   0.73035   0.17187   1.000
    O468    O    0.16101   0.23039   0.17189   1.000
    O469    O    0.66102   0.23039   0.17189   1.000
    O470    O    0.16108   0.51965   0.17189   1.000
    O471    O    0.66109   0.51965   0.17189   1.000
    O472    O    0.00640   0.26083   0.17569   1.000
    O473    O    0.05468   0.22959   0.19049   1.000
    O474    O    0.50640   0.26083   0.17569   1.000
    O475    O    0.55470   0.22959   0.19049   1.000
    O476    O    0.00639   0.98918   0.17571   1.000
    O477    O    0.05466   0.02044   0.19048   1.000
    O478    O    0.50639   0.98918   0.17571   1.000
    O479    O    0.55467   0.02044   0.19051   1.000
    O480    O    0.50646   0.48924   0.17571   1.000
    O481    O    0.55477   0.52047   0.19050   1.000
    O482    O    0.00646   0.48924   0.17571   1.000
    O483    O    0.05476   0.52047   0.19050   1.000
    O484    O    0.00650   0.76083   0.17575   1.000
    O485    O    0.05477   0.72959   0.19053   1.000
    O486    O    0.50650   0.76083   0.17575   1.000
    O487    O    0.55479   0.72959   0.19049   1.000
    O488    O    0.11219   0.04531   0.19845   1.000
    O489    O    0.19717   0.08505   0.21404   1.000
    O490    O    0.61220   0.04531   0.19848   1.000
    O491    O    0.69719   0.08505   0.21404   1.000
    O492    O    0.11231   0.54529   0.19862   1.000
    O493    O    0.19729   0.58501   0.21419   1.000
    O494    O    0.61233   0.54529   0.19862   1.000
    O495    O    0.69730   0.58501   0.21419   1.000
    O496    O    0.61233   0.70474   0.19860   1.000
    O497    O    0.69730   0.66500   0.21419   1.000
    O498    O    0.61224   0.20476   0.19862   1.000
    O499    O    0.69721   0.16503   0.21419   1.000
    O500    O    0.11232   0.70474   0.19864   1.000
    O501    O    0.19728   0.66500   0.21419   1.000
    O502    O    0.11223   0.20476   0.19862   1.000
    O503    O    0.19719   0.16503   0.21419   1.000
    O504    O    0.53055   0.66475   0.23442   1.000
    O505    O    0.03044   0.08529   0.23442   1.000
    O506    O    0.53046   0.16477   0.23443   1.000
    O507    O    0.03046   0.16477   0.23443   1.000
    O508    O    0.03055   0.58529   0.23444   1.000
    O509    O    0.53055   0.58529   0.23444   1.000
    O510    O    0.53044   0.08529   0.23444   1.000
    O511    O    0.03055   0.66475   0.23445   1.000
    O512    O    0.28043   0.08529   0.26558   1.000
    O513    O    0.28045   0.16477   0.26559   1.000
    O514    O    0.20219   0.12506   0.29284   1.000
    O515    O    0.28054   0.66475   0.26557   1.000
    O516    O    0.28054   0.58528   0.26559   1.000
    O517    O    0.20229   0.62501   0.29284   1.000
    O518    O    0.78044   0.08529   0.26558   1.000
    O519    O    0.78046   0.16477   0.26559   1.000
    O520    O    0.70220   0.12506   0.29284   1.000
    O521    O    0.78055   0.66475   0.26557   1.000
    O522    O    0.78055   0.58528   0.26559   1.000
    O523    O    0.70230   0.62500   0.29284   1.000
    O524    O    0.44717   0.16503   0.28583   1.000
    O525    O    0.44715   0.08505   0.28584   1.000
    O526    O    0.53526   0.12505   0.31228   1.000
    O527    O    0.94728   0.66500   0.28581   1.000
    O528    O    0.94728   0.58502   0.28583   1.000
    O529    O    0.03536   0.62500   0.31228   1.000
    O530    O    0.94719   0.16503   0.28583   1.000
    O531    O    0.94716   0.08505   0.28584   1.000
    O532    O    0.03526   0.12505   0.31228   1.000
    O533    O    0.44726   0.66500   0.28581   1.000
    O534    O    0.44727   0.58502   0.28583   1.000
    O535    O    0.53536   0.62500   0.31228   1.000
    O536    O    0.86230   0.70474   0.30138   1.000
    O537    O    0.80476   0.72958   0.30951   1.000
    O538    O    0.36229   0.70474   0.30138   1.000
    O539    O    0.30475   0.72958   0.30951   1.000
    O540    O    0.86218   0.04530   0.30141   1.000
    O541    O    0.80464   0.02044   0.30953   1.000
    O542    O    0.36216   0.04530   0.30141   1.000
    O543    O    0.30463   0.02044   0.30953   1.000
    O544    O    0.86230   0.54529   0.30142   1.000
    O545    O    0.80475   0.52047   0.30955   1.000
    O546    O    0.36229   0.54529   0.30142   1.000
    O547    O    0.30474   0.52047   0.30956   1.000
    O548    O    0.86222   0.20476   0.30142   1.000
    O549    O    0.80468   0.22959   0.30956   1.000
    O550    O    0.36221   0.20476   0.30142   1.000
    O551    O    0.30466   0.22960   0.30956   1.000
    O552    O    0.91108   0.73034   0.32816   1.000
    O553    O    0.41107   0.73034   0.32816   1.000
    O554    O    0.91101   0.23038   0.32817   1.000
    O555    O    0.91108   0.51966   0.32817   1.000
    O556    O    0.41107   0.51966   0.32817   1.000
    O557    O    0.41100   0.23038   0.32817   1.000
    O558    O    0.91097   0.01971   0.32819   1.000
    O559    O    0.41095   0.01971   0.32819   1.000
    O560    O    0.75647   0.76082   0.32431   1.000
    O561    O    0.25646   0.76082   0.32431   1.000
    O562    O    0.75637   0.98918   0.32433   1.000
    O563    O    0.25636   0.98918   0.32433   1.000
    O564    O    0.25638   0.26083   0.32436   1.000
    O565    O    0.25643   0.48925   0.32436   1.000
    O566    O    0.75645   0.48925   0.32436   1.000
    O567    O    0.75639   0.26083   0.32436   1.000
    O568    O    0.81825   0.77156   0.34213   1.000
    O569    O    0.31824   0.77156   0.34213   1.000
    O570    O    0.31814   0.97846   0.34215   1.000
    O571    O    0.81816   0.97846   0.34215   1.000
    O572    O    0.81818   0.27159   0.34215   1.000
    O573    O    0.31822   0.47848   0.34215   1.000
    O574    O    0.81823   0.47848   0.34215   1.000
    O575    O    0.31817   0.27159   0.34215   1.000
    O576    O    0.88278   0.27212   0.35345   1.000
    O577    O    0.94836   0.26244   0.35725   1.000
    O578    O    0.38282   0.47794   0.35345   1.000
    O579    O    0.44840   0.48760   0.35726   1.000
    O580    O    0.38277   0.27212   0.35345   1.000
    O581    O    0.44835   0.26244   0.35725   1.000
    O582    O    0.88283   0.47794   0.35345   1.000
    O583    O    0.94842   0.48760   0.35726   1.000
    O584    O    0.88284   0.77207   0.35346   1.000
    O585    O    0.94842   0.76238   0.35726   1.000
    O586    O    0.38283   0.77207   0.35346   1.000
    O587    O    0.44841   0.76238   0.35726   1.000
    O588    O    0.88275   0.97796   0.35348   1.000
    O589    O    0.94832   0.98767   0.35382   1.000
    O590    O    0.38273   0.97796   0.35348   1.000
    O591    O    0.44831   0.98767   0.35382   1.000
    O592    O    0.12203   0.12507   0.35512   1.000
    O593    O    0.18230   0.12507   0.38010   1.000
    O594    O    0.12212   0.62499   0.35512   1.000
    O595    O    0.18239   0.62500   0.38012   1.000
    O596    O    0.62204   0.12507   0.35512   1.000
    O597    O    0.68232   0.12507   0.38010   1.000
    O598    O    0.62214   0.62499   0.35512   1.000
    O599    O    0.68240   0.62500   0.38012   1.000
    O600    O    0.32977   0.83172   0.38997   1.000
    O601    O    0.32972   0.33176   0.38997   1.000
    O602    O    0.82974   0.33176   0.38997   1.000
    O603    O    0.82978   0.83172   0.38997   1.000
    O604    O    0.82976   0.41830   0.38997   1.000
    O605    O    0.32974   0.41830   0.38997   1.000
    O606    O    0.82974   0.91828   0.38998   1.000
    O607    O    0.32972   0.91828   0.38998   1.000
    O608    O    0.57550   0.12507   0.39672   1.000
    O609    O    0.07549   0.12507   0.39672   1.000
    O610    O    0.07557   0.62498   0.39675   1.000
    O611    O    0.57559   0.62498   0.39675   1.000
    O612    O    0.23385   0.12506   0.41545   1.000
    O613    O    0.17288   0.12507   0.43830   1.000
    O614    O    0.73386   0.12506   0.41545   1.000
    O615    O    0.67289   0.12507   0.43830   1.000
    O616    O    0.23393   0.62501   0.41547   1.000
    O617    O    0.17295   0.62499   0.43867   1.000
    O618    O    0.73394   0.62501   0.41547   1.000
    O619    O    0.67296   0.62499   0.43867   1.000
    O620    O    0.22499   0.37503   0.42190   1.000
    O621    O    0.33338   0.37504   0.47749   1.000
    O622    O    0.22502   0.87498   0.42191   1.000
    O623    O    0.33342   0.87497   0.47749   1.000
    O624    O    0.72503   0.87498   0.42191   1.000
    O625    O    0.83343   0.87497   0.47749   1.000
    O626    O    0.72500   0.37503   0.42190   1.000
    O627    O    0.83339   0.37504   0.47749   1.000
    O628    O    0.54111   0.12507   0.44509   1.000
    O629    O    0.60800   0.12506   0.44840   1.000
    O630    O    0.04110   0.12507   0.44509   1.000
    O631    O    0.10799   0.12506   0.44840   1.000
    O632    O    0.54118   0.62496   0.44511   1.000
    O633    O    0.60807   0.62498   0.44878   1.000
    O634    O    0.04117   0.62496   0.44511   1.000
    O635    O    0.10806   0.62498   0.44878   1.000
    O636    O    0.66654   0.12504   0.52219   1.000
    O637    O    0.16653   0.12504   0.52219   1.000
    O638    O    0.66659   0.62498   0.52254   1.000
    O639    O    0.16658   0.62498   0.52254   1.000
    O640    O    0.89197   0.87495   0.55125   1.000
    O641    O    0.82708   0.87495   0.56137   1.000
    O642    O    0.89191   0.37505   0.55125   1.000
    O643    O    0.82702   0.37503   0.56137   1.000
    O644    O    0.39196   0.87495   0.55125   1.000
    O645    O    0.32707   0.87495   0.56137   1.000
    O646    O    0.39190   0.37505   0.55125   1.000
    O647    O    0.32701   0.37503   0.56137   1.000
    O648    O    0.45885   0.87495   0.55488   1.000
    O649    O    0.95886   0.87495   0.55488   1.000
    O650    O    0.45878   0.37506   0.55492   1.000
    O651    O    0.95880   0.37506   0.55492   1.000
    O652    O    0.92447   0.87494   0.60328   1.000
    O653    O    0.42446   0.87494   0.60328   1.000
    O654    O    0.42438   0.37505   0.60328   1.000
    O655    O    0.92440   0.37505   0.60328   1.000
    O656    O    0.77494   0.12503   0.57812   1.000
    O657    O    0.27493   0.12503   0.57812   1.000
    O658    O    0.77497   0.62499   0.57813   1.000
    O659    O    0.27496   0.62499   0.57813   1.000
    O660    O    0.17022   0.08173   0.61004   1.000
    O661    O    0.17018   0.16829   0.61005   1.000
    O662    O    0.67023   0.08173   0.61004   1.000
    O663    O    0.67019   0.16829   0.61005   1.000
    O664    O    0.17023   0.66826   0.61004   1.000
    O665    O    0.17021   0.58171   0.61006   1.000
    O666    O    0.67024   0.66826   0.61004   1.000
    O667    O    0.67022   0.58171   0.61006   1.000
    O668    O    0.26603   0.37501   0.58455   1.000
    O669    O    0.76604   0.37501   0.58455   1.000
    O670    O    0.26610   0.87495   0.58456   1.000
    O671    O    0.76611   0.87495   0.58456   1.000
    O672    O    0.81758   0.37502   0.61989   1.000
    O673    O    0.31757   0.37502   0.61989   1.000
    O674    O    0.31765   0.87494   0.61991   1.000
    O675    O    0.81766   0.87494   0.61991   1.000
    O676    O    0.05164   0.01235   0.64271   1.000
    O677    O    0.55165   0.01235   0.64271   1.000
    O678    O    0.55156   0.23764   0.64273   1.000
    O679    O    0.05154   0.23764   0.64273   1.000
    O680    O    0.55156   0.51242   0.64278   1.000
    O681    O    0.05155   0.51242   0.64278   1.000
    O682    O    0.55161   0.73758   0.64279   1.000
    O683    O    0.05159   0.73758   0.64279   1.000
    O684    O    0.37783   0.37503   0.64490   1.000
    O685    O    0.46461   0.37502   0.68775   1.000
    O686    O    0.37792   0.87494   0.64491   1.000
    O687    O    0.46470   0.87496   0.68775   1.000
    O688    O    0.87785   0.37503   0.64490   1.000
    O689    O    0.96461   0.37502   0.68775   1.000
    O690    O    0.87793   0.87494   0.64491   1.000
    O691    O    0.96470   0.87496   0.68775   1.000
    O692    O    0.61719   0.72790   0.64658   1.000
    O693    O    0.68179   0.72843   0.65786   1.000
    O694    O    0.11718   0.72790   0.64658   1.000
    O695    O    0.18178   0.72843   0.65786   1.000
    O696    O    0.11721   0.02206   0.64655   1.000
    O697    O    0.18180   0.02156   0.65787   1.000
    O698    O    0.61723   0.02206   0.64655   1.000
    O699    O    0.68181   0.02156   0.65787   1.000
    O700    O    0.11712   0.22795   0.64657   1.000
    O701    O    0.18171   0.22846   0.65789   1.000
    O702    O    0.61714   0.22795   0.64657   1.000
    O703    O    0.68173   0.22846   0.65789   1.000
    O704    O    0.11714   0.52208   0.64659   1.000
    O705    O    0.18174   0.52154   0.65788   1.000
    O706    O    0.61715   0.52208   0.64659   1.000
    O707    O    0.68175   0.52154   0.65788   1.000
    O708    O    0.29767   0.37501   0.70718   1.000
    O709    O    0.79768   0.37501   0.70718   1.000
    O710    O    0.29776   0.87496   0.70719   1.000
    O711    O    0.79777   0.87496   0.70719   1.000
    O712    O    0.58900   0.98031   0.67184   1.000
    O713    O    0.08899   0.98031   0.67184   1.000
    O714    O    0.08889   0.26968   0.67185   1.000
    O715    O    0.58890   0.26968   0.67185   1.000
    O716    O    0.08889   0.48036   0.67187   1.000
    O717    O    0.58890   0.48036   0.67187   1.000
    O718    O    0.08895   0.76964   0.67187   1.000
    O719    O    0.58896   0.76964   0.67187   1.000
    O720    O    0.74358   0.73919   0.67566   1.000
    O721    O    0.69530   0.77043   0.69047   1.000
    O722    O    0.24357   0.73919   0.67566   1.000
    O723    O    0.19528   0.77043   0.69047   1.000
    O724    O    0.24352   0.51076   0.67567   1.000
    O725    O    0.19522   0.47954   0.69048   1.000
    O726    O    0.74354   0.51076   0.67567   1.000
    O727    O    0.69523   0.47954   0.69048   1.000
    O728    O    0.24359   0.01083   0.67569   1.000
    O729    O    0.19531   0.97958   0.69047   1.000
    O730    O    0.74360   0.01083   0.67569   1.000
    O731    O    0.69533   0.97958   0.69047   1.000
    O732    O    0.24350   0.23920   0.67572   1.000
    O733    O    0.19521   0.27044   0.69051   1.000
    O734    O    0.74351   0.23920   0.67572   1.000
    O735    O    0.69522   0.27044   0.69051   1.000
    O736    O    0.63779   0.95471   0.69859   1.000
    O737    O    0.55281   0.91497   0.71420   1.000
    O738    O    0.13778   0.95471   0.69859   1.000
    O739    O    0.05279   0.91497   0.71420   1.000
    O740    O    0.63775   0.79526   0.69861   1.000
    O741    O    0.55278   0.83499   0.71420   1.000
    O742    O    0.63768   0.45472   0.69861   1.000
    O743    O    0.55270   0.41500   0.71420   1.000
    O744    O    0.13767   0.45473   0.69861   1.000
    O745    O    0.05269   0.41500   0.71420   1.000
    O746    O    0.63768   0.29528   0.69863   1.000
    O747    O    0.55271   0.33502   0.71420   1.000
    O748    O    0.13767   0.29528   0.69863   1.000
    O749    O    0.05269   0.33502   0.71420   1.000
    O750    O    0.13774   0.79526   0.69861   1.000
    O751    O    0.05277   0.83499   0.71420   1.000
    O752    O    0.71953   0.91473   0.73442   1.000
    O753    O    0.21952   0.91473   0.73442   1.000
    O754    O    0.21950   0.83525   0.73444   1.000
    O755    O    0.71951   0.83525   0.73444   1.000
    O756    O    0.71943   0.41473   0.73444   1.000
    O757    O    0.21942   0.41473   0.73444   1.000
    O758    O    0.21942   0.33527   0.73446   1.000
    O759    O    0.71943   0.33527   0.73446   1.000
    O760    O    0.96941   0.33527   0.76555   1.000
    O761    O    0.96942   0.41473   0.76560   1.000
    O762    O    0.04764   0.37501   0.79285   1.000
    O763    O    0.46941   0.33527   0.76555   1.000
    O764    O    0.46942   0.41473   0.76560   1.000
    O765    O    0.54765   0.37501   0.79287   1.000
    O766    O    0.46952   0.91473   0.76559   1.000
    O767    O    0.46950   0.83525   0.76561   1.000
    O768    O    0.54774   0.87496   0.79287   1.000
    O769    O    0.96952   0.91473   0.76559   1.000
    O770    O    0.96950   0.83525   0.76561   1.000
    O771    O    0.04773   0.87496   0.79287   1.000
    O772    O    0.80276   0.83499   0.78584   1.000
    O773    O    0.80278   0.91497   0.78584   1.000
    O774    O    0.71466   0.87496   0.81227   1.000
    O775    O    0.30275   0.83499   0.78584   1.000
    O776    O    0.30277   0.91497   0.78584   1.000
    O777    O    0.21465   0.87496   0.81227   1.000
    O778    O    0.30267   0.41500   0.78584   1.000
    O779    O    0.30267   0.33502   0.78585   1.000
    O780    O    0.21456   0.37502   0.81232   1.000
    O781    O    0.80268   0.41500   0.78584   1.000
    O782    O    0.80268   0.33502   0.78585   1.000
    O783    O    0.71457   0.37502   0.81232   1.000
    O784    O    0.38764   0.29528   0.80137   1.000
    O785    O    0.44518   0.27043   0.80947   1.000
    O786    O    0.88765   0.29528   0.80137   1.000
    O787    O    0.94519   0.27043   0.80947   1.000
    O788    O    0.88776   0.95471   0.80141   1.000
    O789    O    0.94530   0.97958   0.80953   1.000
    O790    O    0.38775   0.95471   0.80141   1.000
    O791    O    0.44529   0.97958   0.80953   1.000
    O792    O    0.88765   0.45473   0.80141   1.000
    O793    O    0.94521   0.47955   0.80954   1.000
    O794    O    0.38764   0.45473   0.80141   1.000
    O795    O    0.44520   0.47955   0.80954   1.000
    O796    O    0.38771   0.79526   0.80142   1.000
    O797    O    0.44526   0.77043   0.80955   1.000
    O798    O    0.88773   0.79526   0.80142   1.000
    O799    O    0.94527   0.77043   0.80955   1.000
    O800    O    0.83895   0.76963   0.82814   1.000
    O801    O    0.33893   0.76963   0.82814   1.000
    O802    O    0.33887   0.48037   0.82814   1.000
    O803    O    0.83888   0.48037   0.82814   1.000
    O804    O    0.83888   0.26967   0.82817   1.000
    O805    O    0.33886   0.26967   0.82817   1.000
    O806    O    0.33897   0.98032   0.82818   1.000
    O807    O    0.83898   0.98032   0.82818   1.000
    O808    O    0.49347   0.23919   0.82429   1.000
    O809    O    0.99347   0.23918   0.82429   1.000
    O810    O    0.49356   0.01084   0.82432   1.000
    O811    O    0.99356   0.01084   0.82432   1.000
    O812    O    0.49350   0.51077   0.82433   1.000
    O813    O    0.99350   0.51078   0.82433   1.000
    O814    O    0.49355   0.73919   0.82434   1.000
    O815    O    0.99355   0.73919   0.82434   1.000
    O816    O    0.93170   0.22844   0.84210   1.000
    O817    O    0.43169   0.22844   0.84210   1.000
    O818    O    0.43178   0.02157   0.84213   1.000
    O819    O    0.43173   0.52156   0.84211   1.000
    O820    O    0.93179   0.02157   0.84213   1.000
    O821    O    0.93174   0.52156   0.84211   1.000
    O822    O    0.93178   0.72842   0.84212   1.000
    O823    O    0.43177   0.72842   0.84212   1.000
    O824    O    0.36718   0.72789   0.85340   1.000
    O825    O    0.30159   0.73755   0.85721   1.000
    O826    O    0.86715   0.52211   0.85340   1.000
    O827    O    0.80156   0.51245   0.85718   1.000
    O828    O    0.36714   0.52211   0.85340   1.000
    O829    O    0.30155   0.51245   0.85721   1.000
    O830    O    0.86719   0.72789   0.85340   1.000
    O831    O    0.80160   0.73756   0.85721   1.000
    O832    O    0.86712   0.22793   0.85343   1.000
    O833    O    0.80154   0.23762   0.85725   1.000
    O834    O    0.36711   0.22793   0.85343   1.000
    O835    O    0.30153   0.23762   0.85727   1.000
    O836    O    0.36720   0.02207   0.85345   1.000
    O837    O    0.30162   0.01237   0.85729   1.000
    O838    O    0.86721   0.02207   0.85345   1.000
    O839    O    0.80164   0.01236   0.85729   1.000
    O840    O    0.12776   0.37503   0.85514   1.000
    O841    O    0.06749   0.37502   0.88013   1.000
    O842    O    0.12785   0.87494   0.85511   1.000
    O843    O    0.06757   0.87494   0.88014   1.000
    O844    O    0.62786   0.87494   0.85511   1.000
    O845    O    0.56758   0.87494   0.88014   1.000
    O846    O    0.62777   0.37503   0.85516   1.000
    O847    O    0.56750   0.37502   0.88015   1.000
    O848    O    0.92027   0.66825   0.88993   1.000
    O849    O    0.42023   0.58173   0.88992   1.000
    O850    O    0.92025   0.58173   0.88993   1.000
    O851    O    0.42025   0.66825   0.88992   1.000
    O852    O    0.42019   0.16828   0.88994   1.000
    O853    O    0.92020   0.16828   0.88994   1.000
    O854    O    0.42023   0.08174   0.88996   1.000
    O855    O    0.92024   0.08174   0.88996   1.000
    O856    O    0.17439   0.87494   0.89675   1.000
    O857    O    0.67440   0.87494   0.89675   1.000
    O858    O    0.17431   0.37504   0.89681   1.000
    O859    O    0.67432   0.37504   0.89681   1.000
    O860    O    0.01604   0.87494   0.91547   1.000
    O861    O    0.07700   0.87494   0.93868   1.000
    O862    O    0.51604   0.87494   0.91547   1.000
    O863    O    0.57701   0.87494   0.93868   1.000
    O864    O    0.51596   0.37501   0.91550   1.000
    O865    O    0.57694   0.37503   0.93868   1.000
    O866    O    0.01596   0.37501   0.91550   1.000
    O867    O    0.07692   0.37503   0.93868   1.000
    O868    O    0.52501   0.62499   0.92179   1.000
    O869    O    0.02501   0.62499   0.92180   1.000
    O870    O    0.52496   0.12503   0.92182   1.000
    O871    O    0.02496   0.12503   0.92182   1.000
    O872    O    0.70879   0.87494   0.94517   1.000
    O873    O    0.64190   0.87494   0.94881   1.000
    O874    O    0.20877   0.87494   0.94517   1.000
    O875    O    0.14189   0.87494   0.94881   1.000
    O876    O    0.70872   0.37506   0.94518   1.000
    O877    O    0.64183   0.37505   0.94881   1.000
    O878    O    0.20870   0.37506   0.94518   1.000
    O879    O    0.14182   0.37505   0.94881   1.000
loop_
    _geom_bond_atom_site_label_1
    _geom_bond_atom_site_label_2
    _geom_bond_distance
    _geom_bond_site_symmetry_2
    _ccdc_geom_bond_type
    C357   O384      0.68068      .   S
    C201   O384      0.68068      .   S
    C357   O385      0.68029      .   S
    C205   O385      0.68029      .   S
    C357   O386      1.12747  1_554   S
    C5     O386      1.12747      .   S
    C359   O387      0.68069      .   S
    C203   O387      0.68069      .   S
    C359   O388      0.68028      .   S
    C207   O388      0.68028      .   S
    C359   O389      1.12738  1_554   S
    C7     O389      1.12738      .   S
    C356   O390      0.68069      .   S
    C200   O390      0.68069      .   S
    C356   O391      0.68029      .   S
    C204   O391      0.68029      .   S
    C356   O392      1.12735  1_554   S
    C4     O392      1.12735      .   S
    C358   O393      0.68069      .   S
    C202   O393      0.68069      .   S
    C358   O394      0.68029      .   S
    C206   O394      0.68029      .   S
    C358   O395      1.12735  1_554   S
    C6     O395      1.12735      .   S
    C104   O396      0.54334      .   S
    C200   O396      0.54334      .   S
    C106   O397      0.54334      .   S
    C202   O397      0.54334      .   S
    C105   O398      0.54333      .   S
    C201   O398      0.54333      .   S
    C107   O399      0.54333      .   S
    C203   O399      0.54333      .   S
    C202   O400      0.66694      .   S
    C350   O400      0.66694      .   S
    C201   O401      0.66696      .   S
    C349   O401      0.66696      .   S
    C200   O402      0.66694      .   S
    C348   O402      0.66694      .   S
    C203   O403      0.66696      .   S
    C351   O403      0.66696      .   S
    C237   O404      1.40929      .   S
    C15    O404      1.40929      .   S
    C239   O405      1.40907      .   S
    C13    O405      1.40907  1_455   S
    C238   O406      1.40906      .   S
    C12    O406      1.40906  1_455   S
    C236   O407      1.40927      .   S
    C14    O407      1.40927      .   S
    C13    O408      1.13357      .   S
    C301   O408      1.13357      .   S
    C13    O409      1.13351      .   S
    C277   O409      1.13351      .   S
    C13    O410      1.12744      .   S
    C381   O410      1.12744  1_556   S
    C15    O411      1.13357      .   S
    C303   O411      1.13357      .   S
    C15    O412      1.13351      .   S
    C279   O412      1.13351      .   S
    C15    O413      1.12744      .   S
    C383   O413      1.12744  1_556   S
    C12    O414      1.13348      .   S
    C276   O414      1.13348      .   S
    C12    O415      1.13349      .   S
    C300   O415      1.13349      .   S
    C12    O416      1.12765      .   S
    C380   O416      1.12765  1_556   S
    C14    O417      1.13347      .   S
    C278   O417      1.13347      .   S
    C14    O418      1.13350      .   S
    C302   O418      1.13350      .   S
    C14    O419      1.12765      .   S
    C382   O419      1.12765  1_556   S
    C111   O420      0.54265      .   S
    C205   O420      0.54265      .   S
    C109   O421      0.54245  1_455   S
    C207   O421      0.54245      .   S
    C108   O422      0.54246  1_455   S
    C206   O422      0.54246      .   S
    C110   O423      0.54266      .   S
    C204   O423      0.54266      .   S
    C207   O424      0.66151      .   S
    C355   O424      0.66151      .   S
    C205   O425      0.66151      .   S
    C353   O425      0.66151      .   S
    C206   O426      0.66485      .   S
    C354   O426      0.66485      .   S
    C204   O427      0.66485      .   S
    C352   O427      0.66485      .   S
    C73    O428      0.54305      .   S
    C169   O428      0.54305      .   S
    C75    O429      0.54305      .   S
    C171   O429      0.54305      .   S
    C74    O430      0.54329      .   S
    C170   O430      0.54329      .   S
    C59    O431      0.54304      .   S
    C155   O431      0.54304      .   S
    C57    O432      0.54304      .   S
    C153   O432      0.54304      .   S
    C72    O433      0.54304      .   S
    C168   O433      0.54304      .   S
    C58    O434      0.54302      .   S
    C154   O434      0.54302      .   S
    C56    O435      0.54303      .   S
    C152   O435      0.54303      .   S
    C351   O436      0.68962      .   S
    C355   O436      0.68962      .   S
    C351   O437      1.18176      .   S
    C31    O437      1.18176      .   S
    C350   O438      0.69029      .   S
    C354   O438      0.69029      .   S
    C350   O439      1.18177      .   S
    C30    O439      1.18177      .   S
    C349   O440      0.68962      .   S
    C353   O440      0.68962      .   S
    C349   O441      1.18176      .   S
    C29    O441      1.18176      .   S
    C348   O442      0.69029      .   S
    C352   O442      0.69029      .   S
    C348   O443      1.18177      .   S
    C28    O443      1.18177      .   S
    C303   O444      0.68053      .   S
    C171   O444      0.68053      .   S
    C303   O445      0.67994      .   S
    C175   O445      0.67994      .   S
    C301   O446      0.68054      .   S
    C169   O446      0.68054      .   S
    C301   O447      0.67994      .   S
    C173   O447      0.67994      .   S
    C276   O448      0.68054      .   S
    C152   O448      0.68054      .   S
    C276   O449      0.67996      .   S
    C156   O449      0.67996      .   S
    C277   O450      0.68054      .   S
    C153   O450      0.68054      .   S
    C277   O451      0.67996      .   S
    C157   O451      0.67996      .   S
    C278   O452      0.68054      .   S
    C154   O452      0.68054      .   S
    C278   O453      0.67996      .   S
    C158   O453      0.67996      .   S
    C279   O454      0.68054      .   S
    C155   O454      0.68054      .   S
    C279   O455      0.67994      .   S
    C159   O455      0.67994      .   S
    C300   O456      0.68053      .   S
    C168   O456      0.68053      .   S
    C300   O457      0.67990      .   S
    C172   O457      0.67990      .   S
    C302   O458      0.68053      .   S
    C170   O458      0.68053      .   S
    C302   O459      0.67990      .   S
    C174   O459      0.67990      .   S
    C353   O460      1.22394      .   S
    C17    O460      1.22394      .   S
    C355   O461      1.22394      .   S
    C19    O461      1.22394      .   S
    C352   O462      1.22060      .   S
    C16    O462      1.22060      .   S
    C354   O463      1.22060      .   S
    C18    O463      1.22060      .   S
    C169   O464      0.66591  1_565   S
    C304   O464      0.66591      .   S
    C171   O465      0.66591  1_565   S
    C306   O465      0.66591      .   S
    C153   O466      0.66733      .   S
    C281   O466      0.66733      .   S
    C155   O467      0.66729      .   S
    C283   O467      0.66729      .   S
    C152   O468      0.66730      .   S
    C280   O468      0.66730      .   S
    C154   O469      0.66730      .   S
    C282   O469      0.66730      .   S
    C168   O470      0.66723      .   S
    C305   O470      0.66723      .   S
    C170   O471      0.66723      .   S
    C307   O471      0.66723      .   S
    C156   O472      0.54251      .   S
    C62    O472      0.54251  1_655   S
    C156   O473      0.66488      .   S
    C284   O473      0.66488      .   S
    C158   O474      0.54271      .   S
    C60    O474      0.54271      .   S
    C158   O475      0.66488      .   S
    C286   O475      0.66488      .   S
    C173   O476      0.54251      .   S
    C79    O476      0.54251  1_655   S
    C173   O477      0.66483  1_565   S
    C308   O477      0.66483      .   S
    C175   O478      0.54271      .   S
    C77    O478      0.54271      .   S
    C175   O479      0.66507  1_565   S
    C310   O479      0.66507      .   S
    C174   O480      0.54271      .   S
    C76    O480      0.54271      .   S
    C174   O481      0.66490      .   S
    C311   O481      0.66490      .   S
    C172   O482      0.54251      .   S
    C78    O482      0.54251  1_655   S
    C172   O483      0.66490      .   S
    C309   O483      0.66490      .   S
    C157   O484      0.54250      .   S
    C63    O484      0.54250  1_655   S
    C157   O485      0.66491      .   S
    C285   O485      0.66491      .   S
    C159   O486      0.54272      .   S
    C61    O486      0.54272      .   S
    C159   O487      0.66459      .   S
    C287   O487      0.66459      .   S
    C304   O488      0.69059      .   S
    C308   O488      0.69059      .   S
    C304   O489      1.19171      .   S
    C28    O489      1.19171      .   S
    C306   O490      0.69070      .   S
    C310   O490      0.69070      .   S
    C306   O491      1.19171      .   S
    C30    O491      1.19171      .   S
    C305   O492      0.69014      .   S
    C309   O492      0.69014      .   S
    C305   O493      1.19071      .   S
    C29    O493      1.19071      .   S
    C307   O494      0.69014      .   S
    C311   O494      0.69014      .   S
    C307   O495      1.19071      .   S
    C31    O495      1.19071      .   S
    C283   O496      0.68999      .   S
    C287   O496      0.68999      .   S
    C283   O497      1.19063      .   S
    C31    O497      1.19063      .   S
    C282   O498      0.69012      .   S
    C286   O498      0.69012      .   S
    C282   O499      1.19054      .   S
    C30    O499      1.19054      .   S
    C281   O500      0.69013      .   S
    C285   O500      0.69013      .   S
    C281   O501      1.19060      .   S
    C29    O501      1.19060      .   S
    C280   O502      0.69011      .   S
    C284   O502      0.69011      .   S
    C280   O503      1.19055      .   S
    C28    O503      1.19055      .   S
    C287   O504      1.20071      .   S
    C17    O504      1.20071      .   S
    C308   O505      1.20057      .   S
    C18    O505      1.20057  1_655   S
    C286   O506      1.20051      .   S
    C16    O506      1.20051      .   S
    C284   O507      1.20039      .   S
    C18    O507      1.20039  1_655   S
    C309   O508      1.20021      .   S
    C19    O508      1.20021  1_655   S
    C311   O509      1.20032      .   S
    C17    O509      1.20032      .   S
    C310   O510      1.20044      .   S
    C16    O510      1.20044      .   S
    C285   O511      1.20027      .   S
    C19    O511      1.20027  1_655   S
    C28    O512      1.20026      .   S
    C248   O512      1.20026      .   S
    C28    O513      1.20033      .   S
    C320   O513      1.20033      .   S
    C28    O514      1.22113      .   S
    C364   O514      1.22113      .   S
    C29    O515      1.20019      .   S
    C321   O515      1.20019      .   S
    C29    O516      1.20013      .   S
    C249   O516      1.20013      .   S
    C29    O517      1.22114      .   S
    C365   O517      1.22114      .   S
    C30    O518      1.20026      .   S
    C250   O518      1.20026      .   S
    C30    O519      1.20032      .   S
    C322   O519      1.20032      .   S
    C30    O520      1.22113      .   S
    C366   O520      1.22113      .   S
    C31    O521      1.20019      .   S
    C323   O521      1.20019      .   S
    C31    O522      1.20010      .   S
    C251   O522      1.20010      .   S
    C31    O523      1.22114      .   S
    C367   O523      1.22114      .   S
    C16    O524      1.19078      .   S
    C316   O524      1.19078      .   S
    C16    O525      1.19092      .   S
    C244   O525      1.19092      .   S
    C16    O526      1.18125      .   S
    C362   O526      1.18125      .   S
    C19    O527      1.19066      .   S
    C319   O527      1.19066      .   S
    C19    O528      1.19088      .   S
    C247   O528      1.19088      .   S
    C19    O529      1.18109  1_655   S
    C361   O529      1.18109      .   S
    C18    O530      1.19078      .   S
    C318   O530      1.19078      .   S
    C18    O531      1.19092      .   S
    C246   O531      1.19092      .   S
    C18    O532      1.18113  1_655   S
    C360   O532      1.18113      .   S
    C17    O533      1.19066      .   S
    C317   O533      1.19066      .   S
    C17    O534      1.19088      .   S
    C245   O534      1.19088      .   S
    C17    O535      1.18122      .   S
    C363   O535      1.18122      .   S
    C323   O536      0.69005      .   S
    C319   O536      0.69005      .   S
    C323   O537      0.66490      .   S
    C183   O537      0.66490      .   S
    C321   O538      0.69005      .   S
    C317   O538      0.69005      .   S
    C321   O539      0.66490      .   S
    C181   O539      0.66490      .   S
    C250   O540      0.69013      .   S
    C246   O540      0.69013      .   S
    C250   O541      0.66507      .   S
    C135   O541      0.66507  1_565   S
    C248   O542      0.69013      .   S
    C244   O542      0.69013      .   S
    C248   O543      0.66507      .   S
    C133   O543      0.66507  1_565   S
    C251   O544      0.69013      .   S
    C247   O544      0.69013      .   S
    C251   O545      0.66491      .   S
    C134   O545      0.66491      .   S
    C249   O546      0.69011      .   S
    C245   O546      0.69011      .   S
    C249   O547      0.66487      .   S
    C132   O547      0.66487      .   S
    C322   O548      0.69012      .   S
    C318   O548      0.69012      .   S
    C322   O549      0.66490      .   S
    C182   O549      0.66490      .   S
    C320   O550      0.69012      .   S
    C316   O550      0.69012      .   S
    C320   O551      0.66489      .   S
    C180   O551      0.66489      .   S
    C319   O552      0.66753      .   S
    C179   O552      0.66753      .   S
    C317   O553      0.66753      .   S
    C177   O553      0.66753      .   S
    C318   O554      0.66732      .   S
    C178   O554      0.66732      .   S
    C247   O555      0.66729      .   S
    C130   O555      0.66729      .   S
    C245   O556      0.66730      .   S
    C128   O556      0.66730      .   S
    C316   O557      0.66731      .   S
    C176   O557      0.66731      .   S
    C246   O558      0.66742      .   S
    C131   O558      0.66742  1_565   S
    C244   O559      0.66742      .   S
    C129   O559      0.66742  1_565   S
    C87    O560      0.54272      .   S
    C183   O560      0.54272      .   S
    C85    O561      0.54272      .   S
    C181   O561      0.54272      .   S
    C39    O562      0.54272      .   S
    C135   O562      0.54272      .   S
    C37    O563      0.54272      .   S
    C133   O563      0.54272      .   S
    C84    O564      0.54272      .   S
    C180   O564      0.54272      .   S
    C36    O565      0.54272      .   S
    C132   O565      0.54272      .   S
    C38    O566      0.54272      .   S
    C134   O566      0.54272      .   S
    C86    O567      0.54271      .   S
    C182   O567      0.54271      .   S
    C183   O568      0.67995      .   S
    C315   O568      0.67995      .   S
    C181   O569      0.67995      .   S
    C313   O569      0.67995      .   S
    C133   O570      0.67996      .   S
    C241   O570      0.67996      .   S
    C135   O571      0.67996      .   S
    C243   O571      0.67996      .   S
    C182   O572      0.67997      .   S
    C314   O572      0.67997      .   S
    C132   O573      0.67994      .   S
    C240   O573      0.67994      .   S
    C134   O574      0.67994      .   S
    C242   O574      0.67994      .   S
    C180   O575      0.67997      .   S
    C312   O575      0.67997      .   S
    C178   O576      0.68053      .   S
    C314   O576      0.68053      .   S
    C178   O577      0.54302      .   S
    C82    O577      0.54302      .   S
    C128   O578      0.68054      .   S
    C240   O578      0.68054      .   S
    C128   O579      0.54306      .   S
    C32    O579      0.54306      .   S
    C176   O580      0.68054      .   S
    C312   O580      0.68054      .   S
    C176   O581      0.54299      .   S
    C80    O581      0.54299      .   S
    C130   O582      0.68054      .   S
    C242   O582      0.68054      .   S
    C130   O583      0.54307      .   S
    C34    O583      0.54307      .   S
    C179   O584      0.68054      .   S
    C315   O584      0.68054      .   S
    C179   O585      0.54278      .   S
    C83    O585      0.54278      .   S
    C177   O586      0.68054      .   S
    C313   O586      0.68054      .   S
    C177   O587      0.54278      .   S
    C81    O587      0.54278      .   S
    C131   O588      0.68054      .   S
    C243   O588      0.68054      .   S
    C131   O589      0.52457      .   S
    C35    O589      0.52457      .   S
    C129   O590      0.68054      .   S
    C241   O590      0.68054      .   S
    C129   O591      0.52457      .   S
    C33    O591      0.52457      .   S
    C364   O592      0.69028      .   S
    C360   O592      0.69028      .   S
    C364   O593      0.66459      .   S
    C212   O593      0.66459      .   S
    C365   O594      0.69031      .   S
    C361   O594      0.69031      .   S
    C365   O595      0.66495      .   S
    C213   O595      0.66495      .   S
    C366   O596      0.69028      .   S
    C362   O596      0.69028      .   S
    C366   O597      0.66459      .   S
    C214   O597      0.66459      .   S
    C367   O598      0.69031      .   S
    C363   O598      0.69031      .   S
    C367   O599      0.66495      .   S
    C215   O599      0.66495      .   S
    C313   O600      1.13357      .   S
    C1     O600      1.13357      .   S
    C312   O601      1.13352      .   S
    C0     O601      1.13352      .   S
    C314   O602      1.13352      .   S
    C2     O602      1.13352      .   S
    C315   O603      1.13357      .   S
    C3     O603      1.13357      .   S
    C242   O604      1.13353      .   S
    C2     O604      1.13353      .   S
    C240   O605      1.13353      .   S
    C0     O605      1.13353      .   S
    C243   O606      1.13360      .   S
    C3     O606      1.13360      .   S
    C241   O607      1.13360      .   S
    C1     O607      1.13360      .   S
    C362   O608      0.66622      .   S
    C210   O608      0.66622      .   S
    C360   O609      0.66622      .   S
    C208   O609      0.66622      .   S
    C361   O610      0.66689      .   S
    C209   O610      0.66689      .   S
    C363   O611      0.66689      .   S
    C211   O611      0.66689      .   S
    C212   O612      0.54270      .   S
    C116   O612      0.54270      .   S
    C212   O613      0.67559      .   S
    C368   O613      0.67559      .   S
    C214   O614      0.54271      .   S
    C118   O614      0.54271      .   S
    C214   O615      0.67558      .   S
    C370   O615      0.67558      .   S
    C213   O616      0.54261      .   S
    C117   O616      0.54261      .   S
    C213   O617      0.68026      .   S
    C369   O617      0.68026      .   S
    C215   O618      0.54261      .   S
    C119   O618      0.54261      .   S
    C215   O619      0.68026      .   S
    C371   O619      0.68026      .   S
    C0     O620      1.40928      .   S
    C224   O620      1.40928      .   S
    C0     O621      1.12736      .   S
    C344   O621      1.12736      .   S
    C1     O622      1.40928      .   S
    C225   O622      1.40928      .   S
    C1     O623      1.12744      .   S
    C345   O623      1.12744      .   S
    C3     O624      1.40929      .   S
    C227   O624      1.40929      .   S
    C3     O625      1.12743      .   S
    C347   O625      1.12743      .   S
    C2     O626      1.40928      .   S
    C226   O626      1.40928      .   S
    C2     O627      1.12736      .   S
    C346   O627      1.12736      .   S
    C210   O628      0.54368      .   S
    C114   O628      0.54368      .   S
    C210   O629      0.67796      .   S
    C370   O629      0.67796      .   S
    C208   O630      0.54369      .   S
    C112   O630      0.54369      .   S
    C208   O631      0.67796      .   S
    C368   O631      0.67796      .   S
    C211   O632      0.54334      .   S
    C115   O632      0.54334      .   S
    C211   O633      0.68066      .   S
    C371   O633      0.68066      .   S
    C209   O634      0.54334      .   S
    C113   O634      0.54334      .   S
    C209   O635      0.68066      .   S
    C369   O635      0.68066      .   S
    C370   O636      1.13363      .   S
    C10    O636      1.13363      .   S
    C368   O637      1.13363      .   S
    C8     O637      1.13363      .   S
    C371   O638      1.12735      .   S
    C11    O638      1.12735      .   S
    C369   O639      1.12735      .   S
    C9     O639      1.12735      .   S
    C347   O640      0.68068      .   S
    C195   O640      0.68068      .   S
    C347   O641      0.68025      .   S
    C199   O641      0.68025      .   S
    C346   O642      0.68066      .   S
    C194   O642      0.68066      .   S
    C346   O643      0.68025      .   S
    C198   O643      0.68025      .   S
    C345   O644      0.68068      .   S
    C193   O644      0.68068      .   S
    C345   O645      0.68025      .   S
    C197   O645      0.68025      .   S
    C344   O646      0.68066      .   S
    C192   O646      0.68066      .   S
    C344   O647      0.68025      .   S
    C196   O647      0.68025      .   S
    C97    O648      0.54360      .   S
    C193   O648      0.54360      .   S
    C99    O649      0.54360      .   S
    C195   O649      0.54360      .   S
    C96    O650      0.54334      .   S
    C192   O650      0.54334      .   S
    C98    O651      0.54334      .   S
    C194   O651      0.54334      .   S
    C195   O652      0.66697      .   S
    C339   O652      0.66697      .   S
    C193   O653      0.66697      .   S
    C337   O653      0.66697      .   S
    C192   O654      0.66689      .   S
    C336   O654      0.66689      .   S
    C194   O655      0.66689      .   S
    C338   O655      0.66689      .   S
    C234   O656      1.40929      .   S
    C10    O656      1.40929      .   S
    C232   O657      1.40929      .   S
    C8     O657      1.40929      .   S
    C235   O658      1.40928      .   S
    C11    O658      1.40928      .   S
    C233   O659      1.40928      .   S
    C9     O659      1.40928      .   S
    C8     O660      1.13360      .   S
    C288   O660      1.13360      .   S
    C8     O661      1.13357      .   S
    C264   O661      1.13357      .   S
    C10    O662      1.13360      .   S
    C290   O662      1.13360      .   S
    C10    O663      1.13357      .   S
    C266   O663      1.13357      .   S
    C9     O664      1.13333      .   S
    C265   O664      1.13333      .   S
    C9     O665      1.13353      .   S
    C289   O665      1.13353      .   S
    C11    O666      1.13333      .   S
    C267   O666      1.13333      .   S
    C11    O667      1.13352      .   S
    C291   O667      1.13352      .   S
    C100   O668      0.54266      .   S
    C196   O668      0.54266      .   S
    C102   O669      0.54266      .   S
    C198   O669      0.54266      .   S
    C101   O670      0.54266      .   S
    C197   O670      0.54266      .   S
    C103   O671      0.54266      .   S
    C199   O671      0.54266      .   S
    C198   O672      0.66461      .   S
    C342   O672      0.66461      .   S
    C196   O673      0.66461      .   S
    C340   O673      0.66461      .   S
    C197   O674      0.66484      .   S
    C341   O674      0.66484      .   S
    C199   O675      0.66484      .   S
    C343   O675      0.66484      .   S
    C64    O676      0.54304      .   S
    C160   O676      0.54304      .   S
    C66    O677      0.54304      .   S
    C162   O677      0.54304      .   S
    C50    O678      0.54304      .   S
    C146   O678      0.54304      .   S
    C48    O679      0.54304      .   S
    C144   O679      0.54304      .   S
    C67    O680      0.54305      .   S
    C163   O680      0.54305      .   S
    C65    O681      0.54304      .   S
    C161   O681      0.54304      .   S
    C51    O682      0.54306      .   S
    C147   O682      0.54306      .   S
    C49    O683      0.54307      .   S
    C145   O683      0.54307      .   S
    C336   O684      0.69023      .   S
    C340   O684      0.69023      .   S
    C336   O685      1.18121      .   S
    C26    O685      1.18121      .   S
    C337   O686      0.69027      .   S
    C341   O686      0.69027      .   S
    C337   O687      1.18123      .   S
    C27    O687      1.18123      .   S
    C338   O688      0.69024      .   S
    C342   O688      0.69024      .   S
    C338   O689      1.18108      .   S
    C24    O689      1.18108  1_455   S
    C339   O690      0.69026      .   S
    C343   O690      0.69026      .   S
    C339   O691      1.18111      .   S
    C25    O691      1.18111  1_455   S
    C267   O692      0.68062      .   S
    C147   O692      0.68062      .   S
    C267   O693      0.68013      .   S
    C151   O693      0.68013      .   S
    C265   O694      0.68061      .   S
    C145   O694      0.68061      .   S
    C265   O695      0.68013      .   S
    C149   O695      0.68013      .   S
    C288   O696      0.68054      .   S
    C160   O696      0.68054      .   S
    C288   O697      0.67997      .   S
    C164   O697      0.67997      .   S
    C290   O698      0.68054      .   S
    C162   O698      0.68054      .   S
    C290   O699      0.67997      .   S
    C166   O699      0.67997      .   S
    C264   O700      0.68055      .   S
    C144   O700      0.68055      .   S
    C264   O701      0.67995      .   S
    C148   O701      0.67995      .   S
    C266   O702      0.68056      .   S
    C146   O702      0.68056      .   S
    C266   O703      0.67995      .   S
    C150   O703      0.67995      .   S
    C289   O704      0.68054      .   S
    C161   O704      0.68054      .   S
    C289   O705      0.67997      .   S
    C165   O705      0.67997      .   S
    C291   O706      0.68054      .   S
    C163   O706      0.68054      .   S
    C291   O707      0.67996      .   S
    C167   O707      0.67996      .   S
    C340   O708      1.22148      .   S
    C20    O708      1.22148      .   S
    C342   O709      1.22148      .   S
    C22    O709      1.22148      .   S
    C341   O710      1.22114      .   S
    C21    O710      1.22114      .   S
    C343   O711      1.22114      .   S
    C23    O711      1.22114      .   S
    C162   O712      0.66747  1_545   S
    C295   O712      0.66747      .   S
    C160   O713      0.66747  1_545   S
    C293   O713      0.66747      .   S
    C144   O714      0.66732      .   S
    C268   O714      0.66732      .   S
    C146   O715      0.66731      .   S
    C270   O715      0.66731      .   S
    C161   O716      0.66731      .   S
    C292   O716      0.66731      .   S
    C163   O717      0.66731      .   S
    C294   O717      0.66731      .   S
    C145   O718      0.66728      .   S
    C269   O718      0.66728      .   S
    C147   O719      0.66728      .   S
    C271   O719      0.66728      .   S
    C151   O720      0.54272      .   S
    C55    O720      0.54272      .   S
    C151   O721      0.66494      .   S
    C275   O721      0.66494      .   S
    C149   O722      0.54272      .   S
    C53    O722      0.54272      .   S
    C149   O723      0.66493      .   S
    C273   O723      0.66493      .   S
    C165   O724      0.54271      .   S
    C69    O724      0.54271      .   S
    C165   O725      0.66486      .   S
    C296   O725      0.66486      .   S
    C167   O726      0.54272      .   S
    C71    O726      0.54272      .   S
    C167   O727      0.66487      .   S
    C298   O727      0.66487      .   S
    C164   O728      0.54271      .   S
    C68    O728      0.54271      .   S
    C164   O729      0.66484  1_545   S
    C297   O729      0.66484      .   S
    C166   O730      0.54272      .   S
    C70    O730      0.54272      .   S
    C166   O731      0.66484  1_545   S
    C299   O731      0.66484      .   S
    C148   O732      0.54272      .   S
    C52    O732      0.54272      .   S
    C148   O733      0.66490      .   S
    C272   O733      0.66490      .   S
    C150   O734      0.54272      .   S
    C54    O734      0.54272      .   S
    C150   O735      0.66490      .   S
    C274   O735      0.66490      .   S
    C295   O736      0.69002      .   S
    C299   O736      0.69002      .   S
    C295   O737      1.19092      .   S
    C27    O737      1.19092      .   S
    C293   O738      0.69002      .   S
    C297   O738      0.69002      .   S
    C293   O739      1.19092      .   S
    C25    O739      1.19092      .   S
    C271   O740      0.69013      .   S
    C275   O740      0.69013      .   S
    C271   O741      1.19080      .   S
    C27    O741      1.19080      .   S
    C294   O742      0.69013      .   S
    C298   O742      0.69013      .   S
    C294   O743      1.19089      .   S
    C26    O743      1.19089      .   S
    C292   O744      0.69012      .   S
    C296   O744      0.69012      .   S
    C292   O745      1.19090      .   S
    C24    O745      1.19090      .   S
    C270   O746      0.69012      .   S
    C274   O746      0.69012      .   S
    C270   O747      1.19080      .   S
    C26    O747      1.19080      .   S
    C268   O748      0.69012      .   S
    C272   O748      0.69012      .   S
    C268   O749      1.19080      .   S
    C24    O749      1.19080      .   S
    C269   O750      0.69013      .   S
    C273   O750      0.69013      .   S
    C269   O751      1.19080      .   S
    C25    O751      1.19080      .   S
    C299   O752      1.20047      .   S
    C23    O752      1.20047      .   S
    C297   O753      1.20047      .   S
    C21    O753      1.20047      .   S
    C273   O754      1.20025      .   S
    C21    O754      1.20025      .   S
    C275   O755      1.20025      .   S
    C23    O755      1.20025      .   S
    C298   O756      1.20012      .   S
    C22    O756      1.20012      .   S
    C296   O757      1.20013      .   S
    C20    O757      1.20013      .   S
    C272   O758      1.20023      .   S
    C20    O758      1.20023      .   S
    C274   O759      1.20023      .   S
    C22    O759      1.20023      .   S
    C24    O760      1.20003  1_455   S
    C334   O760      1.20003      .   S
    C24    O761      1.20019  1_455   S
    C262   O761      1.20019      .   S
    C24    O762      1.22035      .   S
    C376   O762      1.22035      .   S
    C26    O763      1.20014      .   S
    C332   O763      1.20014      .   S
    C26    O764      1.20032      .   S
    C260   O764      1.20032      .   S
    C26    O765      1.22068      .   S
    C378   O765      1.22068      .   S
    C27    O766      1.20043      .   S
    C261   O766      1.20043      .   S
    C27    O767      1.20048      .   S
    C333   O767      1.20048      .   S
    C27    O768      1.22061      .   S
    C379   O768      1.22061      .   S
    C25    O769      1.20032  1_455   S
    C263   O769      1.20032      .   S
    C25    O770      1.20037  1_455   S
    C335   O770      1.20037      .   S
    C25    O771      1.22061      .   S
    C377   O771      1.22061      .   S
    C23    O772      1.19057      .   S
    C331   O772      1.19057      .   S
    C23    O773      1.19070      .   S
    C259   O773      1.19070      .   S
    C23    O774      1.18118      .   S
    C375   O774      1.18118      .   S
    C21    O775      1.19057      .   S
    C329   O775      1.19057      .   S
    C21    O776      1.19070      .   S
    C257   O776      1.19070      .   S
    C21    O777      1.18118      .   S
    C373   O777      1.18118      .   S
    C20    O778      1.19068      .   S
    C256   O778      1.19068      .   S
    C20    O779      1.19060      .   S
    C328   O779      1.19060      .   S
    C20    O780      1.18176      .   S
    C372   O780      1.18176      .   S
    C22    O781      1.19068      .   S
    C258   O781      1.19068      .   S
    C22    O782      1.19060      .   S
    C330   O782      1.19060      .   S
    C22    O783      1.18176      .   S
    C374   O783      1.18176      .   S
    C332   O784      0.69026      .   S
    C328   O784      0.69026      .   S
    C332   O785      0.66515      .   S
    C188   O785      0.66515      .   S
    C334   O786      0.69026      .   S
    C330   O786      0.69026      .   S
    C334   O787      0.66516      .   S
    C190   O787      0.66516      .   S
    C263   O788      0.69013      .   S
    C259   O788      0.69013      .   S
    C263   O789      0.66507      .   S
    C142   O789      0.66507  1_545   S
    C261   O790      0.69013      .   S
    C257   O790      0.69013      .   S
    C261   O791      0.66508      .   S
    C140   O791      0.66508  1_545   S
    C262   O792      0.69013      .   S
    C258   O792      0.69013      .   S
    C262   O793      0.66491      .   S
    C143   O793      0.66491      .   S
    C260   O794      0.69013      .   S
    C256   O794      0.69013      .   S
    C260   O795      0.66490      .   S
    C141   O795      0.66490      .   S
    C333   O796      0.69013      .   S
    C329   O796      0.69013      .   S
    C333   O797      0.66489      .   S
    C189   O797      0.66489      .   S
    C335   O798      0.69012      .   S
    C331   O798      0.69012      .   S
    C335   O799      0.66489      .   S
    C191   O799      0.66489      .   S
    C331   O800      0.66727      .   S
    C187   O800      0.66727      .   S
    C329   O801      0.66728      .   S
    C185   O801      0.66728      .   S
    C256   O802      0.66728      .   S
    C137   O802      0.66728      .   S
    C258   O803      0.66728      .   S
    C139   O803      0.66728      .   S
    C330   O804      0.66728      .   S
    C186   O804      0.66728      .   S
    C328   O805      0.66728      .   S
    C184   O805      0.66728      .   S
    C257   O806      0.66746      .   S
    C136   O806      0.66746  1_545   S
    C259   O807      0.66745      .   S
    C138   O807      0.66745  1_545   S
    C94    O808      0.54272      .   S
    C188   O808      0.54272      .   S
    C92    O809      0.54251  1_455   S
    C190   O809      0.54251      .   S
    C46    O810      0.54271      .   S
    C140   O810      0.54271      .   S
    C44    O811      0.54251  1_455   S
    C142   O811      0.54251      .   S
    C47    O812      0.54271      .   S
    C141   O812      0.54271      .   S
    C45    O813      0.54251  1_455   S
    C143   O813      0.54251      .   S
    C95    O814      0.54271      .   S
    C189   O814      0.54271      .   S
    C93    O815      0.54251  1_455   S
    C191   O815      0.54251      .   S
    C190   O816      0.67993      .   S
    C326   O816      0.67993      .   S
    C188   O817      0.67994      .   S
    C324   O817      0.67994      .   S
    C140   O818      0.67995      .   S
    C252   O818      0.67995      .   S
    C141   O819      0.67994      .   S
    C253   O819      0.67994      .   S
    C142   O820      0.67995      .   S
    C254   O820      0.67995      .   S
    C143   O821      0.67995      .   S
    C255   O821      0.67995      .   S
    C191   O822      0.67993      .   S
    C327   O822      0.67993      .   S
    C189   O823      0.67992      .   S
    C325   O823      0.67992      .   S
    C185   O824      0.68053      .   S
    C325   O824      0.68053      .   S
    C185   O825      0.54306      .   S
    C89    O825      0.54306      .   S
    C139   O826      0.68056      .   S
    C255   O826      0.68056      .   S
    C139   O827      0.54284      .   S
    C43    O827      0.54284      .   S
    C137   O828      0.68054      .   S
    C253   O828      0.68054      .   S
    C137   O829      0.54307      .   S
    C41    O829      0.54307      .   S
    C187   O830      0.68053      .   S
    C327   O830      0.68053      .   S
    C187   O831      0.54306      .   S
    C91    O831      0.54306      .   S
    C186   O832      0.68054      .   S
    C326   O832      0.68054      .   S
    C186   O833      0.54295      .   S
    C90    O833      0.54295      .   S
    C184   O834      0.68054      .   S
    C324   O834      0.68054      .   S
    C184   O835      0.54307      .   S
    C88    O835      0.54307      .   S
    C136   O836      0.68053      .   S
    C252   O836      0.68053      .   S
    C136   O837      0.54305      .   S
    C40    O837      0.54305      .   S
    C138   O838      0.68054      .   S
    C254   O838      0.68054      .   S
    C138   O839      0.54305      .   S
    C42    O839      0.54305      .   S
    C376   O840      0.69035      .   S
    C372   O840      0.69035      .   S
    C376   O841      0.66522      .   S
    C220   O841      0.66522      .   S
    C377   O842      0.69013      .   S
    C373   O842      0.69013      .   S
    C377   O843      0.66485      .   S
    C221   O843      0.66485      .   S
    C379   O844      0.69013      .   S
    C375   O844      0.69013      .   S
    C379   O845      0.66485      .   S
    C223   O845      0.66485      .   S
    C378   O846      0.69029      .   S
    C374   O846      0.69029      .   S
    C378   O847      0.66488      .   S
    C222   O847      0.66488      .   S
    C327   O848      1.13347      .   S
    C7     O848      1.13347      .   S
    C253   O849      1.13337      .   S
    C5     O849      1.13337      .   S
    C255   O850      1.13341      .   S
    C7     O850      1.13341      .   S
    C325   O851      1.13342      .   S
    C5     O851      1.13342      .   S
    C324   O852      1.13354      .   S
    C4     O852      1.13354      .   S
    C326   O853      1.13354      .   S
    C6     O853      1.13354      .   S
    C252   O854      1.13355      .   S
    C4     O854      1.13355      .   S
    C254   O855      1.13355      .   S
    C6     O855      1.13355      .   S
    C373   O856      0.66751      .   S
    C217   O856      0.66751      .   S
    C375   O857      0.66751      .   S
    C219   O857      0.66751      .   S
    C372   O858      0.66696      .   S
    C216   O858      0.66696      .   S
    C374   O859      0.66696      .   S
    C218   O859      0.66696      .   S
    C221   O860      0.54246      .   S
    C127   O860      0.54246  1_655   S
    C221   O861      0.68022      .   S
    C381   O861      0.68022      .   S
    C223   O862      0.54267      .   S
    C125   O862      0.54267      .   S
    C223   O863      0.68022      .   S
    C383   O863      0.68022      .   S
    C222   O864      0.54266      .   S
    C124   O864      0.54266      .   S
    C222   O865      0.68000      .   S
    C382   O865      0.68000      .   S
    C220   O866      0.54245      .   S
    C126   O866      0.54245  1_655   S
    C220   O867      0.68000      .   S
    C380   O867      0.68000      .   S
    C5     O868      1.40928      .   S
    C231   O868      1.40928      .   S
    C7     O869      1.40907  1_655   S
    C229   O869      1.40907      .   S
    C4     O870      1.40928      .   S
    C230   O870      1.40928      .   S
    C6     O871      1.40907  1_655   S
    C228   O871      1.40907      .   S
    C219   O872      0.54347      .   S
    C123   O872      0.54347      .   S
    C219   O873      0.68078      .   S
    C383   O873      0.68078      .   S
    C217   O874      0.54347      .   S
    C121   O874      0.54347      .   S
    C217   O875      0.68078      .   S
    C381   O875      0.68078      .   S
    C218   O876      0.54333      .   S
    C122   O876      0.54333      .   S
    C218   O877      0.68050      .   S
    C382   O877      0.68050      .   S
    C216   O878      0.54334      .   S
    C120   O878      0.54334      .   S
    C216   O879      0.68050      .   S
    C380   O879      0.68050      .   S
