# CIF file generated by openbabel 2.4.90, see http://openbabel.sf.net
data_I
_chemical_name_common ''
_cell_length_a 14.53
_cell_length_b 15.861
_cell_length_c 16.411
_cell_angle_alpha 89.999
_cell_angle_beta 89.998
_cell_angle_gamma 89.999
_space_group_name_H-M_alt 'P 1'
_space_group_name_Hall 'P 1'
loop_
    _symmetry_equiv_pos_as_xyz
    x,y,z
loop_
    _atom_site_label
    _atom_site_type_symbol
    _atom_site_fract_x
    _atom_site_fract_y
    _atom_site_fract_z
    _atom_site_occupancy
    H0      H    0.45047   0.08025   0.02031   1.000
    H1      H    0.27948   0.25841   0.30307   1.000
    H2      H    0.04958   0.91949   0.52028   1.000
    H3      H    0.22038   0.74152   0.80324   1.000
    H4      H    0.54957   0.58026   0.47967   1.000
    H5      H    0.72056   0.75840   0.19693   1.000
    H6      H    0.95046   0.41946   0.97969   1.000
    H7      H    0.77968   0.24154   0.69672   1.000
    H8      H    0.54959   0.91971   0.97966   1.000
    H9      H    0.72056   0.74158   0.69690   1.000
    H10     H    0.95045   0.08055   0.47970   1.000
    H11     H    0.77966   0.25850   0.19674   1.000
    H12     H    0.45046   0.41970   0.52030   1.000
    H13     H    0.27949   0.24159   0.80306   1.000
    H14     H    0.04960   0.58059   0.02020   1.000
    H15     H    0.22036   0.75847   0.30328   1.000
    C16     C    0.24425   0.01604   0.05792   1.000
    C17     C    0.38055   0.05618   0.01829   1.000
    C18     C    0.25095   0.00000   0.97279   1.000
    C19     C    0.34847   0.26419   0.27883   1.000
    C20     C    0.47848   0.23167   0.22183   1.000
    C21     C    0.48059   0.31690   0.24432   1.000
    C22     C    0.25576   0.98378   0.55790   1.000
    C23     C    0.11948   0.94359   0.51826   1.000
    C24     C    0.24906   0.99471   0.47280   1.000
    C25     C    0.15141   0.73574   0.77896   1.000
    C26     C    0.02143   0.76827   0.72191   1.000
    C27     C    0.01932   0.68304   0.74438   1.000
    C28     C    0.75578   0.51604   0.44206   1.000
    C29     C    0.61949   0.55619   0.48100   1.000
    C30     C    0.74910   0.50516   0.52717   1.000
    C31     C    0.65158   0.76419   0.22117   1.000
    C32     C    0.52155   0.73167   0.27816   1.000
    C33     C    0.51945   0.81690   0.25567   1.000
    C34     C    0.74429   0.48377   0.94206   1.000
    C35     C    0.88056   0.44357   0.98170   1.000
    C36     C    0.75098   0.49469   0.02718   1.000
    C37     C    0.84864   0.23576   0.72100   1.000
    C38     C    0.97863   0.26827   0.77805   1.000
    C39     C    0.98073   0.18304   0.75559   1.000
    C40     C    0.75580   0.98395   0.94205   1.000
    C41     C    0.61951   0.94378   0.98169   1.000
    C42     C    0.74909   0.99483   0.02718   1.000
    C43     C    0.65158   0.73579   0.72114   1.000
    C44     C    0.52156   0.76832   0.77814   1.000
    C45     C    0.51945   0.68309   0.75565   1.000
    C46     C    0.74428   0.01623   0.44207   1.000
    C47     C    0.88055   0.05644   0.48171   1.000
    C48     C    0.75098   0.00000   0.52718   1.000
    C49     C    0.84862   0.26427   0.22101   1.000
    C50     C    0.97861   0.23174   0.27806   1.000
    C51     C    0.98072   0.31697   0.25559   1.000
    C52     C    0.24426   0.48395   0.55792   1.000
    C53     C    0.38055   0.44378   0.51828   1.000
    C54     C    0.25094   0.49483   0.47280   1.000
    C55     C    0.34847   0.23580   0.77882   1.000
    C56     C    0.47849   0.26832   0.72182   1.000
    C57     C    0.48059   0.18309   0.74431   1.000
    C58     C    0.25576   0.51624   0.05792   1.000
    C59     C    0.11950   0.55647   0.01827   1.000
    C60     C    0.24907   0.50533   0.97279   1.000
    C61     C    0.15139   0.76425   0.27899   1.000
    C62     C    0.02141   0.73173   0.22193   1.000
    C63     C    0.01931   0.81697   0.24439   1.000
    N64     N    0.32739   0.04784   0.08479   1.000
    N65     N    0.33799   0.03119   0.94968   1.000
    N66     N    0.39424   0.19942   0.24450   1.000
    N67     N    0.39796   0.33623   0.28012   1.000
    N68     N    0.17265   0.95192   0.58477   1.000
    N69     N    0.16203   0.96865   0.44969   1.000
    N70     N    0.10566   0.80052   0.74466   1.000
    N71     N    0.10192   0.66371   0.78022   1.000
    N72     N    0.67265   0.54785   0.41519   1.000
    N73     N    0.66205   0.53119   0.55028   1.000
    N74     N    0.60580   0.69941   0.25544   1.000
    N75     N    0.60209   0.83622   0.21988   1.000
    N76     N    0.82740   0.45190   0.91519   1.000
    N77     N    0.83801   0.46863   0.05000   1.000
    N78     N    0.89440   0.30053   0.75530   1.000
    N79     N    0.89813   0.16372   0.71974   1.000
    N80     N    0.67266   0.95213   0.91518   1.000
    N81     N    0.66206   0.96879   0.05029   1.000
    N82     N    0.60580   0.80057   0.75542   1.000
    N83     N    0.60208   0.66376   0.71985   1.000
    N84     N    0.82739   0.04811   0.41520   1.000
    N85     N    0.83801   0.03138   0.55029   1.000
    N86     N    0.89438   0.19949   0.25530   1.000
    N87     N    0.89812   0.33630   0.21975   1.000
    N88     N    0.32739   0.45213   0.58479   1.000
    N89     N    0.33799   0.46879   0.44970   1.000
    N90     N    0.39425   0.30058   0.74455   1.000
    N91     N    0.39796   0.16376   0.78010   1.000
    N92     N    0.17265   0.54813   0.08478   1.000
    N93     N    0.16204   0.53140   0.94968   1.000
    N94     N    0.10564   0.69948   0.24469   1.000
    N95     N    0.10191   0.83628   0.28020   1.000
loop_
    _geom_bond_atom_site_label_1
    _geom_bond_atom_site_label_2
    _geom_bond_distance
    _geom_bond_site_symmetry_2
    _ccdc_geom_bond_type
    C59    H14       1.08573      .   S
    C59    N92       1.34367      .   S
    C59    N93       1.34431  1_554   S
    C17    H0        1.08576      .   S
    C17    N64       1.34353      .   S
    C17    N65       1.34437  1_554   S
    C36    N77       1.38216      .   S
    C36    C34       1.41096  1_554   S
    C42    N81       1.38340      .   S
    C42    C40       1.41105  1_554   S
    N77    C35       1.34032  1_554   S
    N81    C41       1.34425  1_554   S
    C16    N64       1.38137      .   S
    C16    C18       1.42336  1_554   S
    C58    N92       1.38136      .   S
    C58    C60       1.41112  1_554   S
    H11    C49       1.08226      .   S
    H5     C31       1.08230      .   S
    N87    C49       1.35010      .   S
    N87    C51       1.37127      .   S
    N75    C31       1.35014      .   S
    N75    C33       1.37133      .   S
    C49    N86       1.34693      .   S
    C31    N74       1.34697      .   S
    C20    C21       1.40164      .   S
    C20    N66       1.37778      .   S
    C62    C63       1.40158      .   S
    C62    N94       1.37805      .   S
    C21    N67       1.37135      .   S
    C63    N95       1.37097      .   S
    N66    C19       1.34735      .   S
    N94    C61       1.34697      .   S
    N86    C50       1.37809      .   S
    N74    C32       1.37803      .   S
    C51    C50       1.40160      .   S
    C33    C32       1.40165      .   S
    C19    N67       1.35015      .   S
    C19    H1        1.08226      .   S
    C61    N95       1.35009      .   S
    C61    H15       1.08233      .   S
    N72    C28       1.38138      .   S
    N72    C29       1.33434      .   S
    N84    C46       1.38140      .   S
    N84    C47       1.34368      .   S
    C28    C30       1.41070      .   S
    C46    C48       1.42361      .   S
    N69    C24       1.38339      .   S
    N69    C23       1.34399      .   S
    N89    C54       1.38344      .   S
    N89    C53       1.34400      .   S
    C54    C52       1.41087      .   S
    C24    C22       1.41065      .   S
    H4     C29       1.08547      .   S
    H10    C47       1.08576      .   S
    C29    N73       1.35363      .   S
    C47    N85       1.34414      .   S
    C23    H2        1.08576      .   S
    C23    N68       1.34370      .   S
    C53    H12       1.08575      .   S
    C53    N88       1.34365      .   S
    C30    N73       1.38349      .   S
    C48    N85       1.41083      .   S
    C22    N68       1.38139      .   S
    C52    N88       1.38137      .   S
    H7     C37       1.08230      .   S
    H9     C43       1.08227      .   S
    N79    C37       1.35011      .   S
    N79    C39       1.37132      .   S
    N83    C43       1.35015      .   S
    N83    C45       1.37135      .   S
    C37    N78       1.34699      .   S
    C43    N82       1.34700      .   S
    C56    C57       1.40164      .   S
    C56    N90       1.37805      .   S
    C26    C27       1.40160      .   S
    C26    N70       1.37805      .   S
    C57    N91       1.37130      .   S
    C27    N71       1.37126      .   S
    N90    C55       1.34697      .   S
    N70    C25       1.34699      .   S
    N78    C38       1.37804      .   S
    N82    C44       1.37801      .   S
    C39    C38       1.40158      .   S
    C45    C44       1.40164      .   S
    C55    N91       1.35014      .   S
    C55    H13       1.08226      .   S
    C25    N71       1.35010      .   S
    C25    H3        1.08232      .   S
    N80    C40       1.38139      .   S
    N80    C41       1.34364      .   S
    N76    C34       1.38141      .   S
    N76    C35       1.34369      .   S
    N65    C18       1.40997      .   S
    N93    C60       1.38345      .   S
    H8     C41       1.08576      .   S
    H6     C35       1.08575      .   S
