# CIF file generated by openbabel 2.4.90, see http://openbabel.sf.net
data_I
_chemical_name_common ''
_cell_length_a 14.53
_cell_length_b 15.861
_cell_length_c 16.411
_cell_angle_alpha 89.999
_cell_angle_beta 89.998
_cell_angle_gamma 89.999
_space_group_name_H-M_alt 'P 1'
_space_group_name_Hall 'P 1'
loop_
    _symmetry_equiv_pos_as_xyz
    x,y,z
loop_
    _atom_site_label
    _atom_site_type_symbol
    _atom_site_fract_x
    _atom_site_fract_y
    _atom_site_fract_z
    _atom_site_occupancy
    Zr0     Zr   0.35773   0.06152   0.22199   1.000
    Zr1     Zr   0.12228   0.97642   0.31419   1.000
    Zr2     Zr   0.14229   0.93835   0.72198   1.000
    Zr3     Zr   0.37768   0.02362   0.81415   1.000
    Zr4     Zr   0.64231   0.56152   0.27799   1.000
    Zr5     Zr   0.87777   0.47643   0.18579   1.000
    Zr6     Zr   0.85776   0.43836   0.77798   1.000
    Zr7     Zr   0.62236   0.52362   0.68581   1.000
    Zr8     Zr   0.64232   0.93846   0.77798   1.000
    Zr9     Zr   0.87776   0.02359   0.68579   1.000
    Zr10    Zr   0.85775   0.06166   0.27799   1.000
    Zr11    Zr   0.62237   0.97637   0.18582   1.000
    Zr12    Zr   0.35773   0.43847   0.72199   1.000
    Zr13    Zr   0.12228   0.52358   0.81418   1.000
    Zr14    Zr   0.14229   0.56165   0.22199   1.000
    Zr15    Zr   0.37767   0.47637   0.31417   1.000
    Zr16    Zr   0.00000   0.00000   0.00000   1.000
    Zr17    Zr   0.50002   0.00000   0.49990   1.000
    Zr18    Zr   0.00001   0.50000   0.49999   1.000
    Zr19    Zr   0.50002   0.50000   0.00000   1.000
    Zr20    Zr   0.62819   0.27815   0.17766   1.000
    Zr21    Zr   0.87177   0.72179   0.67769   1.000
    Zr22    Zr   0.37184   0.77815   0.32232   1.000
    Zr23    Zr   0.12830   0.22179   0.82227   1.000
    Zr24    Zr   0.37185   0.72184   0.82231   1.000
    Zr25    Zr   0.12827   0.27821   0.32228   1.000
    Zr26    Zr   0.62820   0.22184   0.67765   1.000
    Zr27    Zr   0.87175   0.77821   0.17770   1.000
    Zr28    Zr   0.17300   0.99917   0.12066   1.000
    Zr29    Zr   0.19065   0.97060   0.90791   1.000
    Zr30    Zr   0.55431   0.38038   0.23753   1.000
    Zr31    Zr   0.54834   0.17771   0.18442   1.000
    Zr32    Zr   0.32698   0.00075   0.62063   1.000
    Zr33    Zr   0.30934   0.02931   0.40792   1.000
    Zr34    Zr   0.94564   0.61956   0.73758   1.000
    Zr35    Zr   0.95164   0.82222   0.68444   1.000
    Zr36    Zr   0.82704   0.49917   0.37932   1.000
    Zr37    Zr   0.80940   0.47060   0.59205   1.000
    Zr38    Zr   0.44573   0.88038   0.26245   1.000
    Zr39    Zr   0.45169   0.67770   0.31556   1.000
    Zr40    Zr   0.67306   0.50074   0.87933   1.000
    Zr41    Zr   0.69070   0.52930   0.09205   1.000
    Zr42    Zr   0.05441   0.11955   0.76238   1.000
    Zr43    Zr   0.04842   0.32222   0.81552   1.000
    Zr44    Zr   0.82705   0.00082   0.87931   1.000
    Zr45    Zr   0.80939   0.02940   0.09206   1.000
    Zr46    Zr   0.44573   0.61961   0.76244   1.000
    Zr47    Zr   0.45170   0.82228   0.81555   1.000
    Zr48    Zr   0.67306   0.99925   0.37934   1.000
    Zr49    Zr   0.69070   0.97070   0.59205   1.000
    Zr50    Zr   0.05440   0.38045   0.26239   1.000
    Zr51    Zr   0.04840   0.17778   0.31553   1.000
    Zr52    Zr   0.17300   0.50082   0.62065   1.000
    Zr53    Zr   0.19065   0.52939   0.40790   1.000
    Zr54    Zr   0.55432   0.11961   0.73752   1.000
    Zr55    Zr   0.54835   0.32229   0.68442   1.000
    Zr56    Zr   0.32699   0.49926   0.12065   1.000
    Zr57    Zr   0.30934   0.47070   0.90792   1.000
    Zr58    Zr   0.94563   0.88045   0.23759   1.000
    Zr59    Zr   0.95163   0.67778   0.18445   1.000
    Zr60    Zr   0.19890   0.01091   0.19443   1.000
    Zr61    Zr   0.09182   0.97436   0.10414   1.000
    Zr62    Zr   0.22948   0.95867   0.83887   1.000
    Zr63    Zr   0.10589   0.95241   0.91730   1.000
    Zr64    Zr   0.62889   0.36199   0.20088   1.000
    Zr65    Zr   0.53113   0.10079   0.17358   1.000
    Zr66    Zr   0.62713   0.21114   0.16307   1.000
    Zr67    Zr   0.53894   0.45202   0.27098   1.000
    Zr68    Zr   0.30108   0.98905   0.69441   1.000
    Zr69    Zr   0.40814   0.02562   0.60410   1.000
    Zr70    Zr   0.27051   0.04127   0.33889   1.000
    Zr71    Zr   0.39410   0.04750   0.41733   1.000
    Zr72    Zr   0.87109   0.63793   0.70089   1.000
    Zr73    Zr   0.96889   0.89913   0.67356   1.000
    Zr74    Zr   0.87284   0.78881   0.66310   1.000
    Zr75    Zr   0.96107   0.54790   0.77098   1.000
    Zr76    Zr   0.80113   0.51091   0.30555   1.000
    Zr77    Zr   0.90823   0.47437   0.39584   1.000
    Zr78    Zr   0.77057   0.45867   0.66109   1.000
    Zr79    Zr   0.89416   0.45241   0.58264   1.000
    Zr80    Zr   0.37115   0.86199   0.29910   1.000
    Zr81    Zr   0.46891   0.60079   0.32640   1.000
    Zr82    Zr   0.37290   0.71114   0.33691   1.000
    Zr83    Zr   0.46111   0.95202   0.22900   1.000
    Zr84    Zr   0.69897   0.48905   0.80555   1.000
    Zr85    Zr   0.59190   0.52561   0.89585   1.000
    Zr86    Zr   0.72953   0.54126   0.16100   1.000
    Zr87    Zr   0.60593   0.54750   0.08260   1.000
    Zr88    Zr   0.12896   0.13793   0.79907   1.000
    Zr89    Zr   0.03117   0.39913   0.82641   1.000
    Zr90    Zr   0.12723   0.28880   0.83686   1.000
    Zr91    Zr   0.03898   0.04790   0.72899   1.000
    Zr92    Zr   0.80114   0.98909   0.80554   1.000
    Zr93    Zr   0.90823   0.02564   0.89583   1.000
    Zr94    Zr   0.77056   0.04132   0.16110   1.000
    Zr95    Zr   0.89415   0.04758   0.08264   1.000
    Zr96    Zr   0.37115   0.63801   0.79909   1.000
    Zr97    Zr   0.46892   0.89920   0.82639   1.000
    Zr98    Zr   0.37291   0.78885   0.83690   1.000
    Zr99    Zr   0.46110   0.54797   0.72899   1.000
    Zr100   Zr   0.69897   0.01095   0.30556   1.000
    Zr101   Zr   0.59190   0.97438   0.39587   1.000
    Zr102   Zr   0.72954   0.95873   0.66108   1.000
    Zr103   Zr   0.60594   0.95250   0.58264   1.000
    Zr104   Zr   0.12895   0.36207   0.29908   1.000
    Zr105   Zr   0.03114   0.10088   0.32641   1.000
    Zr106   Zr   0.12720   0.21120   0.33687   1.000
    Zr107   Zr   0.03898   0.45211   0.22899   1.000
    Zr108   Zr   0.19891   0.48909   0.69442   1.000
    Zr109   Zr   0.09182   0.52563   0.60413   1.000
    Zr110   Zr   0.22948   0.54132   0.33880   1.000
    Zr111   Zr   0.10589   0.54758   0.41734   1.000
    Zr112   Zr   0.62890   0.13800   0.70087   1.000
    Zr113   Zr   0.53113   0.39920   0.67357   1.000
    Zr114   Zr   0.62714   0.28885   0.66306   1.000
    Zr115   Zr   0.53894   0.04797   0.77097   1.000
    Zr116   Zr   0.30107   0.51094   0.19442   1.000
    Zr117   Zr   0.40814   0.47439   0.10412   1.000
    Zr118   Zr   0.27051   0.45874   0.83889   1.000
    Zr119   Zr   0.39410   0.45250   0.91733   1.000
    Zr120   Zr   0.87108   0.86208   0.20090   1.000
    Zr121   Zr   0.96889   0.60088   0.17357   1.000
    Zr122   Zr   0.87282   0.71120   0.16311   1.000
    Zr123   Zr   0.96106   0.95211   0.27099   1.000
    O124    O    0.94708   0.02379   0.04132   1.000
    O125    O    0.04591   0.98718   0.05207   1.000
    O126    O    0.95411   0.01282   0.94792   1.000
    O127    O    0.05295   0.97621   0.95865   1.000
    O128    O    0.64831   0.53840   0.08733   1.000
    O129    O    0.55298   0.52375   0.04130   1.000
    O130    O    0.85177   0.03849   0.08735   1.000
    O131    O    0.71011   0.53528   0.12652   1.000
    O132    O    0.78997   0.03536   0.12658   1.000
    O133    O    0.36756   0.48682   0.11239   1.000
    O134    O    0.45408   0.48719   0.05206   1.000
    O135    O    0.13241   0.98677   0.11240   1.000
    O136    O    0.31403   0.50510   0.15754   1.000
    O137    O    0.18595   0.00504   0.15755   1.000
    O138    O    0.68592   0.55139   0.21950   1.000
    O139    O    0.81415   0.05149   0.21955   1.000
    O140    O    0.62766   0.24465   0.17037   1.000
    O141    O    0.58774   0.19442   0.17375   1.000
    O142    O    0.87229   0.74471   0.17041   1.000
    O143    O    0.91223   0.69449   0.17378   1.000
    O144    O    0.96026   0.63933   0.17901   1.000
    O145    O    0.92333   0.53865   0.17968   1.000
    O146    O    0.53973   0.13925   0.17900   1.000
    O147    O    0.57675   0.03858   0.17970   1.000
    O148    O    0.83945   0.49367   0.24567   1.000
    O149    O    0.66067   0.99366   0.24569   1.000
    O150    O    0.33937   0.49366   0.25430   1.000
    O151    O    0.16059   0.99367   0.25431   1.000
    O152    O    0.59160   0.37118   0.21921   1.000
    O153    O    0.90836   0.87126   0.21924   1.000
    O154    O    0.40942   0.00677   0.22550   1.000
    O155    O    0.31412   0.05140   0.28044   1.000
    O156    O    0.09063   0.50688   0.22549   1.000
    O157    O    0.18588   0.55148   0.28040   1.000
    O158    O    0.04669   0.41628   0.24569   1.000
    O159    O    0.45342   0.91620   0.24573   1.000
    O160    O    0.54662   0.41620   0.25426   1.000
    O161    O    0.95335   0.91628   0.25429   1.000
    O162    O    0.09168   0.37126   0.28074   1.000
    O163    O    0.40844   0.87119   0.28077   1.000
    O164    O    0.59062   0.50677   0.27449   1.000
    O165    O    0.90940   0.00688   0.27449   1.000
    O166    O    0.81409   0.50504   0.34244   1.000
    O167    O    0.68601   0.00510   0.34245   1.000
    O168    O    0.42329   0.53858   0.32029   1.000
    O169    O    0.07671   0.03865   0.32030   1.000
    O170    O    0.03977   0.13933   0.32097   1.000
    O171    O    0.08780   0.19449   0.32620   1.000
    O172    O    0.46030   0.63925   0.32098   1.000
    O173    O    0.41230   0.69442   0.32624   1.000
    O174    O    0.12774   0.24470   0.32958   1.000
    O175    O    0.37237   0.74465   0.32962   1.000
    O176    O    0.21006   0.53536   0.37335   1.000
    O177    O    0.28992   0.03529   0.37341   1.000
    O178    O    0.86764   0.48677   0.38758   1.000
    O179    O    0.63248   0.98682   0.38761   1.000
    O180    O    0.95412   0.48718   0.44792   1.000
    O181    O    0.54596   0.98719   0.44789   1.000
    O182    O    0.14827   0.53849   0.41262   1.000
    O183    O    0.35172   0.03840   0.41263   1.000
    O184    O    0.44706   0.02375   0.45862   1.000
    O185    O    0.05295   0.52379   0.45867   1.000
    O186    O    0.55298   0.97625   0.54127   1.000
    O187    O    0.45408   0.01281   0.55200   1.000
    O188    O    0.94708   0.47620   0.54132   1.000
    O189    O    0.04591   0.51282   0.55206   1.000
    O190    O    0.64832   0.96160   0.58735   1.000
    O191    O    0.85178   0.46151   0.58735   1.000
    O192    O    0.71012   0.96471   0.62657   1.000
    O193    O    0.78998   0.46464   0.62657   1.000
    O194    O    0.36756   0.01318   0.61236   1.000
    O195    O    0.13241   0.51323   0.61239   1.000
    O196    O    0.31403   0.99490   0.65752   1.000
    O197    O    0.18596   0.49495   0.65754   1.000
    O198    O    0.68593   0.94860   0.71953   1.000
    O199    O    0.81416   0.44852   0.71954   1.000
    O200    O    0.62767   0.25535   0.67036   1.000
    O201    O    0.58774   0.30557   0.67374   1.000
    O202    O    0.87230   0.75530   0.67040   1.000
    O203    O    0.91224   0.80552   0.67377   1.000
    O204    O    0.96027   0.86068   0.67900   1.000
    O205    O    0.92333   0.96136   0.67968   1.000
    O206    O    0.53974   0.36075   0.67900   1.000
    O207    O    0.57675   0.46141   0.67969   1.000
    O208    O    0.83945   0.00634   0.74567   1.000
    O209    O    0.66067   0.50633   0.74568   1.000
    O210    O    0.33938   0.00634   0.75428   1.000
    O211    O    0.16060   0.50633   0.75430   1.000
    O212    O    0.59161   0.12881   0.71920   1.000
    O213    O    0.90837   0.62874   0.71924   1.000
    O214    O    0.09064   0.99313   0.72549   1.000
    O215    O    0.18589   0.94851   0.78043   1.000
    O216    O    0.40942   0.49322   0.72549   1.000
    O217    O    0.31412   0.44860   0.78044   1.000
    O218    O    0.04669   0.08373   0.74569   1.000
    O219    O    0.45341   0.58379   0.74572   1.000
    O220    O    0.54663   0.08379   0.75425   1.000
    O221    O    0.95335   0.58373   0.75428   1.000
    O222    O    0.09169   0.12874   0.78073   1.000
    O223    O    0.40844   0.62881   0.78076   1.000
    O224    O    0.59063   0.99322   0.77448   1.000
    O225    O    0.90941   0.49313   0.77448   1.000
    O226    O    0.81409   0.99495   0.84243   1.000
    O227    O    0.68602   0.49490   0.84244   1.000
    O228    O    0.42330   0.96141   0.82027   1.000
    O229    O    0.07672   0.46135   0.82030   1.000
    O230    O    0.03979   0.36067   0.82097   1.000
    O231    O    0.08783   0.30551   0.82619   1.000
    O232    O    0.46031   0.86074   0.82097   1.000
    O233    O    0.41231   0.80557   0.82623   1.000
    O234    O    0.12776   0.25530   0.82957   1.000
    O235    O    0.37238   0.75535   0.82961   1.000
    O236    O    0.21007   0.96463   0.87339   1.000
    O237    O    0.28993   0.46472   0.87341   1.000
    O238    O    0.86764   0.01323   0.88757   1.000
    O239    O    0.63248   0.51318   0.88759   1.000
    O240    O    0.54596   0.51281   0.94793   1.000
    O241    O    0.14827   0.96150   0.91261   1.000
    O242    O    0.35172   0.46160   0.91263   1.000
    O243    O    0.44706   0.47625   0.95867   1.000
    O244    O    0.27832   0.03622   0.20821   1.000
    O245    O    0.30358   0.99115   0.82651   1.000
    O246    O    0.45831   0.46420   0.29258   1.000
    O247    O    0.22168   0.96370   0.70820   1.000
    O248    O    0.19639   0.00885   0.32654   1.000
    O249    O    0.04167   0.53574   0.79258   1.000
    O250    O    0.72172   0.53621   0.29177   1.000
    O251    O    0.69647   0.49115   0.67345   1.000
    O252    O    0.54174   0.96419   0.20741   1.000
    O253    O    0.77837   0.46371   0.79177   1.000
    O254    O    0.80365   0.50885   0.17340   1.000
    O255    O    0.95837   0.03574   0.70739   1.000
    O256    O    0.72173   0.96378   0.79176   1.000
    O257    O    0.69646   0.00884   0.17346   1.000
    O258    O    0.54173   0.53579   0.70740   1.000
    O259    O    0.77836   0.03630   0.29178   1.000
    O260    O    0.80365   0.99116   0.67344   1.000
    O261    O    0.95837   0.46427   0.20739   1.000
    O262    O    0.27832   0.46378   0.70821   1.000
    O263    O    0.30358   0.50884   0.32649   1.000
    O264    O    0.45831   0.03579   0.79256   1.000
    O265    O    0.22168   0.53630   0.20821   1.000
    O266    O    0.19639   0.49116   0.82654   1.000
    O267    O    0.04167   0.96427   0.29259   1.000
    N268    N    0.33193   0.03858   0.01730   1.000
    O269    O    0.33725   0.04663   0.08534   1.000
    O270    O    0.34488   0.03299   0.94961   1.000
    O271    O    0.27028   0.02309   0.05329   1.000
    O272    O    0.27637   0.01194   0.97882   1.000
    N273    N    0.89668   0.26788   0.23774   1.000
    O274    O    0.89231   0.33712   0.22026   1.000
    O275    O    0.95509   0.23632   0.26727   1.000
    O276    O    0.88637   0.19922   0.25219   1.000
    O277    O    0.95712   0.30829   0.24837   1.000
    N278    N    0.39654   0.26780   0.26211   1.000
    O279    O    0.45699   0.30822   0.25152   1.000
    O280    O    0.45498   0.23624   0.23262   1.000
    O281    O    0.39218   0.33705   0.27963   1.000
    O282    O    0.38626   0.19914   0.24768   1.000
    N283    N    0.83195   0.46034   0.98264   1.000
    O284    O    0.77639   0.48617   0.02113   1.000
    O285    O    0.84492   0.46643   0.05027   1.000
    O286    O    0.77031   0.47630   0.94667   1.000
    O287    O    0.83726   0.45273   0.91461   1.000
    N288    N    0.39654   0.23219   0.76211   1.000
    O289    O    0.45700   0.19177   0.75151   1.000
    O290    O    0.45498   0.26375   0.73262   1.000
    O291    O    0.39218   0.16294   0.77962   1.000
    O292    O    0.38627   0.30086   0.74769   1.000
    N293    N    0.60350   0.76780   0.23788   1.000
    O294    O    0.54305   0.80822   0.24847   1.000
    O295    O    0.60787   0.83705   0.22036   1.000
    O296    O    0.61378   0.69913   0.25230   1.000
    O297    O    0.54506   0.73624   0.26737   1.000
    N298    N    0.66812   0.96053   0.98267   1.000
    O299    O    0.72977   0.97646   0.94668   1.000
    O300    O    0.72368   0.98632   0.02115   1.000
    O301    O    0.65517   0.96655   0.05037   1.000
    O302    O    0.66280   0.95291   0.91463   1.000
    N303    N    0.16810   0.53969   0.01727   1.000
    O304    O    0.22974   0.52372   0.05328   1.000
    O305    O    0.22365   0.51385   0.97881   1.000
    O306    O    0.15513   0.53359   0.94960   1.000
    O307    O    0.16279   0.54729   0.08533   1.000
    N308    N    0.33193   0.46053   0.51730   1.000
    O309    O    0.27636   0.48632   0.47882   1.000
    O310    O    0.34488   0.46655   0.44962   1.000
    O311    O    0.33725   0.45291   0.58534   1.000
    O312    O    0.27028   0.47646   0.55329   1.000
    N313    N    0.83194   0.03879   0.48269   1.000
    O314    O    0.77639   0.01207   0.52115   1.000
    O315    O    0.77031   0.02326   0.44670   1.000
    O316    O    0.83726   0.04683   0.41464   1.000
    O317    O    0.84491   0.03313   0.55037   1.000
    N318    N    0.16809   0.96035   0.51728   1.000
    O319    O    0.15512   0.96645   0.44961   1.000
    O320    O    0.22973   0.97631   0.55327   1.000
    O321    O    0.16278   0.95275   0.58533   1.000
    O322    O    0.22364   0.98618   0.47882   1.000
    N323    N    0.10334   0.76786   0.26225   1.000
    O324    O    0.11365   0.69921   0.24779   1.000
    O325    O    0.04493   0.73631   0.23272   1.000
    O326    O    0.04290   0.80828   0.25162   1.000
    O327    O    0.10771   0.83711   0.27972   1.000
    N328    N    0.60351   0.73218   0.73785   1.000
    O329    O    0.60786   0.66294   0.72034   1.000
    O330    O    0.61378   0.80085   0.75228   1.000
    O331    O    0.54305   0.69177   0.74845   1.000
    O332    O    0.54507   0.76374   0.76735   1.000
    N333    N    0.66811   0.53945   0.48256   1.000
    O334    O    0.65516   0.53342   0.55030   1.000
    O335    O    0.66279   0.54706   0.41458   1.000
    O336    O    0.72368   0.51366   0.52109   1.000
    O337    O    0.72976   0.52352   0.44663   1.000
    N338    N    0.89670   0.23214   0.73773   1.000
    O339    O    0.95512   0.26370   0.76726   1.000
    O340    O    0.88639   0.30079   0.75219   1.000
    O341    O    0.89232   0.16290   0.72025   1.000
    O342    O    0.95714   0.19172   0.74836   1.000
    N343    N    0.10336   0.73213   0.76223   1.000
    O344    O    0.04292   0.69172   0.75160   1.000
    O345    O    0.10773   0.66289   0.77971   1.000
    O346    O    0.11367   0.80078   0.74777   1.000
    O347    O    0.04494   0.76369   0.73270   1.000
loop_
    _geom_bond_atom_site_label_1
    _geom_bond_atom_site_label_2
    _geom_bond_distance
    _geom_bond_site_symmetry_2
    _ccdc_geom_bond_type
    Zr16   O124      1.09250  1_455   S
    Zr95   O124      1.09250      .   S
    Zr16   O125      1.10296  1_545   S
    Zr61   O125      1.10296      .   S
    Zr16   O126      1.10297  1_454   S
    Zr93   O126      1.10297      .   S
    Zr16   O127      1.09302  1_544   S
    Zr63   O127      1.09302      .   S
    Zr87   O128      0.63720      .   S
    Zr41   O128      0.63720      .   S
    Zr87   O129      1.09244      .   S
    Zr19   O129      1.09244      .   S
    Zr95   O130      0.63715      .   S
    Zr45   O130      0.63715      .   S
    Zr41   O131      0.63930      .   S
    Zr86   O131      0.63930      .   S
    Zr45   O132      0.63989      .   S
    Zr94   O132      0.63989      .   S
    Zr117  O133      0.63634      .   S
    Zr56   O133      0.63634      .   S
    Zr117  O134      1.10304      .   S
    Zr19   O134      1.10304      .   S
    Zr61   O135      0.63636      .   S
    Zr28   O135      0.63636      .   S
    Zr56   O136      0.64066      .   S
    Zr116  O136      0.64066      .   S
    Zr28   O137      0.64071  1_565   S
    Zr60   O137      0.64071      .   S
    Zr86   O138      1.16139      .   S
    Zr4    O138      1.16139      .   S
    Zr94   O139      1.16071      .   S
    Zr10   O139      1.16071      .   S
    Zr66   O140      0.54481      .   S
    Zr20   O140      0.54481      .   S
    Zr66   O141      0.65469      .   S
    Zr31   O141      0.65469      .   S
    Zr122  O142      0.54482      .   S
    Zr27   O142      0.54482      .   S
    Zr122  O143      0.65472      .   S
    Zr59   O143      0.65472      .   S
    Zr121  O144      0.62902      .   S
    Zr59   O144      0.62902      .   S
    Zr121  O145      1.19260      .   S
    Zr5    O145      1.19260      .   S
    Zr65   O146      0.62901      .   S
    Zr31   O146      0.62901      .   S
    Zr65   O147      1.19296      .   S
    Zr11   O147      1.19296  1_565   S
    Zr5    O148      1.16206      .   S
    Zr76   O148      1.16206      .   S
    Zr11   O149      1.16203      .   S
    Zr100  O149      1.16203  1_545   S
    Zr116  O150      1.16210      .   S
    Zr15   O150      1.16210      .   S
    Zr60   O151      1.16205  1_545   S
    Zr1    O151      1.16205      .   S
    Zr64   O152      0.63658      .   S
    Zr30   O152      0.63658      .   S
    Zr120  O153      0.63656      .   S
    Zr58   O153      0.63656      .   S
    Zr0    O154      1.14955      .   S
    Zr83   O154      1.14955  1_565   S
    Zr0    O155      1.16078      .   S
    Zr70   O155      1.16078      .   S
    Zr14   O156      1.14947      .   S
    Zr107  O156      1.14947      .   S
    Zr14   O157      1.16017      .   S
    Zr110  O157      1.16017      .   S
    Zr107  O158      0.64079      .   S
    Zr50   O158      0.64079      .   S
    Zr83   O159      0.64079      .   S
    Zr38   O159      0.64079      .   S
    Zr30   O160      0.64081      .   S
    Zr67   O160      0.64081      .   S
    Zr58   O161      0.64081      .   S
    Zr123  O161      0.64081      .   S
    Zr50   O162      0.63658      .   S
    Zr104  O162      0.63658      .   S
    Zr38   O163      0.63660      .   S
    Zr80   O163      0.63660      .   S
    Zr67   O164      1.14948      .   S
    Zr4    O164      1.14948      .   S
    Zr123  O165      1.14952  1_565   S
    Zr10   O165      1.14952      .   S
    Zr76   O166      0.64072      .   S
    Zr36   O166      0.64072      .   S
    Zr100  O167      0.64073      .   S
    Zr48   O167      0.64073  1_565   S
    Zr15   O168      1.19288      .   S
    Zr81   O168      1.19288      .   S
    Zr1    O169      1.19268  1_565   S
    Zr105  O169      1.19268      .   S
    Zr51   O170      0.62902      .   S
    Zr105  O170      0.62902      .   S
    Zr51   O171      0.65471      .   S
    Zr106  O171      0.65471      .   S
    Zr39   O172      0.62901      .   S
    Zr81   O172      0.62901      .   S
    Zr39   O173      0.65469      .   S
    Zr82   O173      0.65469      .   S
    Zr25   O174      0.54484      .   S
    Zr106  O174      0.54484      .   S
    Zr22   O175      0.54482      .   S
    Zr82   O175      0.54482      .   S
    Zr110  O176      0.64033      .   S
    Zr53   O176      0.64033      .   S
    Zr70   O177      0.63988      .   S
    Zr33   O177      0.63988      .   S
    Zr36   O178      0.63636      .   S
    Zr77   O178      0.63636      .   S
    Zr48   O179      0.63634      .   S
    Zr101  O179      0.63634      .   S
    Zr77   O180      1.10286      .   S
    Zr18   O180      1.10286  1_455   S
    Zr101  O181      1.10251      .   S
    Zr17   O181      1.10251  1_545   S
    Zr53   O182      0.63718      .   S
    Zr111  O182      0.63718      .   S
    Zr33   O183      0.63716      .   S
    Zr71   O183      0.63716      .   S
    Zr71   O184      1.09227      .   S
    Zr17   O184      1.09227      .   S
    Zr111  O185      1.09271      .   S
    Zr18   O185      1.09271      .   S
    Zr17   O186      1.09320  1_545   S
    Zr103  O186      1.09320      .   S
    Zr17   O187      1.10354      .   S
    Zr69   O187      1.10354      .   S
    Zr18   O188      1.09254  1_455   S
    Zr79   O188      1.09254      .   S
    Zr18   O189      1.10295      .   S
    Zr109  O189      1.10295      .   S
    Zr103  O190      0.63715      .   S
    Zr49   O190      0.63715      .   S
    Zr79   O191      0.63714      .   S
    Zr37   O191      0.63714      .   S
    Zr49   O192      0.63989      .   S
    Zr102  O192      0.63989      .   S
    Zr37   O193      0.63988      .   S
    Zr78   O193      0.63988      .   S
    Zr69   O194      0.63635      .   S
    Zr32   O194      0.63635      .   S
    Zr109  O195      0.63635      .   S
    Zr52   O195      0.63635      .   S
    Zr32   O196      0.64073  1_545   S
    Zr68   O196      0.64073      .   S
    Zr52   O197      0.64072      .   S
    Zr108  O197      0.64072      .   S
    Zr102  O198      1.16078      .   S
    Zr8    O198      1.16078      .   S
    Zr78   O199      1.16070      .   S
    Zr6    O199      1.16070      .   S
    Zr114  O200      0.54482      .   S
    Zr26   O200      0.54482      .   S
    Zr114  O201      0.65471      .   S
    Zr55   O201      0.65471      .   S
    Zr74   O202      0.54483      .   S
    Zr21   O202      0.54483      .   S
    Zr74   O203      0.65472      .   S
    Zr35   O203      0.65472      .   S
    Zr73   O204      0.62902      .   S
    Zr35   O204      0.62902      .   S
    Zr73   O205      1.19271      .   S
    Zr9    O205      1.19271  1_545   S
    Zr113  O206      0.62901      .   S
    Zr55   O206      0.62901      .   S
    Zr113  O207      1.19287      .   S
    Zr7    O207      1.19287      .   S
    Zr9    O208      1.16200      .   S
    Zr92   O208      1.16200  1_565   S
    Zr7    O209      1.16202      .   S
    Zr84   O209      1.16202      .   S
    Zr68   O210      1.16202  1_565   S
    Zr3    O210      1.16202      .   S
    Zr108  O211      1.16208      .   S
    Zr13   O211      1.16208      .   S
    Zr112  O212      0.63660      .   S
    Zr54   O212      0.63660      .   S
    Zr72   O213      0.63657      .   S
    Zr34   O213      0.63657      .   S
    Zr2    O214      1.14951      .   S
    Zr91   O214      1.14951  1_545   S
    Zr2    O215      1.16070      .   S
    Zr62   O215      1.16070      .   S
    Zr12   O216      1.14949      .   S
    Zr99   O216      1.14949      .   S
    Zr12   O217      1.16080      .   S
    Zr118  O217      1.16080      .   S
    Zr91   O218      0.64077      .   S
    Zr42   O218      0.64077      .   S
    Zr99   O219      0.64081      .   S
    Zr46   O219      0.64081      .   S
    Zr54   O220      0.64079      .   S
    Zr115  O220      0.64079      .   S
    Zr34   O221      0.64079      .   S
    Zr75   O221      0.64079      .   S
    Zr42   O222      0.63657      .   S
    Zr88   O222      0.63657      .   S
    Zr46   O223      0.63658      .   S
    Zr96   O223      0.63658      .   S
    Zr115  O224      1.14957  1_545   S
    Zr8    O224      1.14957      .   S
    Zr75   O225      1.14944      .   S
    Zr6    O225      1.14944      .   S
    Zr92   O226      0.64071      .   S
    Zr44   O226      0.64071  1_545   S
    Zr84   O227      0.64074      .   S
    Zr40   O227      0.64074      .   S
    Zr3    O228      1.19294  1_545   S
    Zr97   O228      1.19294      .   S
    Zr13   O229      1.19262      .   S
    Zr89   O229      1.19262      .   S
    Zr43   O230      0.62903      .   S
    Zr89   O230      0.62903      .   S
    Zr43   O231      0.65474      .   S
    Zr90   O231      0.65474      .   S
    Zr47   O232      0.62901      .   S
    Zr97   O232      0.62901      .   S
    Zr47   O233      0.65468      .   S
    Zr98   O233      0.65468      .   S
    Zr23   O234      0.54482      .   S
    Zr90   O234      0.54482      .   S
    Zr24   O235      0.54482      .   S
    Zr98   O235      0.54482      .   S
    Zr62   O236      0.63988      .   S
    Zr29   O236      0.63988      .   S
    Zr118  O237      0.63990      .   S
    Zr57   O237      0.63990      .   S
    Zr44   O238      0.63636      .   S
    Zr93   O238      0.63636      .   S
    Zr40   O239      0.63633      .   S
    Zr85   O239      0.63633      .   S
    Zr85   O240      1.10324      .   S
    Zr19   O240      1.10324  1_554   S
    Zr29   O241      0.63713      .   S
    Zr63   O241      0.63713      .   S
    Zr57   O242      0.63715      .   S
    Zr119  O242      0.63715      .   S
    Zr119  O243      1.09278      .   S
    Zr19   O243      1.09278  1_554   S
    Zr60   O244      1.24244      .   S
    Zr0    O244      1.24244      .   S
    Zr62   O245      1.21060      .   S
    Zr3    O245      1.21060  1_545   S
    Zr67   O246      1.23910      .   S
    Zr15   O246      1.23910      .   S
    Zr68   O247      1.24238      .   S
    Zr2    O247      1.24238      .   S
    Zr70   O248      1.21048      .   S
    Zr1    O248      1.21048  1_565   S
    Zr75   O249      1.23879  1_655   S
    Zr13   O249      1.23879      .   S
    Zr76   O250      1.24241      .   S
    Zr4    O250      1.24241      .   S
    Zr78   O251      1.21064      .   S
    Zr7    O251      1.21064      .   S
    Zr83   O252      1.23910      .   S
    Zr11   O252      1.23910      .   S
    Zr84   O253      1.24239      .   S
    Zr6    O253      1.24239      .   S
    Zr86   O254      1.21058      .   S
    Zr5    O254      1.21058      .   S
    Zr91   O255      1.23880  1_455   S
    Zr9    O255      1.23880      .   S
    Zr92   O256      1.24243      .   S
    Zr8    O256      1.24243      .   S
    Zr94   O257      1.21058      .   S
    Zr11   O257      1.21058  1_565   S
    Zr99   O258      1.23909      .   S
    Zr7    O258      1.23909      .   S
    Zr100  O259      1.24237      .   S
    Zr10   O259      1.24237      .   S
    Zr102  O260      1.21049      .   S
    Zr9    O260      1.21049  1_545   S
    Zr107  O261      1.23880  1_455   S
    Zr5    O261      1.23880      .   S
    Zr108  O262      1.24241      .   S
    Zr12   O262      1.24241      .   S
    Zr110  O263      1.21048      .   S
    Zr15   O263      1.21048      .   S
    Zr115  O264      1.23910      .   S
    Zr3    O264      1.23910      .   S
    Zr116  O265      1.24237      .   S
    Zr14   O265      1.24237      .   S
    Zr118  O266      1.21044      .   S
    Zr13   O266      1.21044      .   S
    Zr123  O267      1.23881  1_655   S
    Zr1    O267      1.23881      .   S
    N268   O269      1.12664      .   S
    Zr0    O269      2.27448      .   S
    N268   O270      1.13018  1_554   S
    Zr3    O270      2.27830      .   S
    N268   O271      1.10082      .   S
    Zr28   O271      1.83414  1_565   S
    N268   O272      1.10865  1_554   S
    Zr29   O272      1.82636  1_565   S
    N273   O274      1.13692      .   S
    Zr5    O274      2.29064      .   S
    N273   O275      1.09802      .   S
    Zr51   O275      1.82408  1_455   S
    N273   O276      1.12443      .   S
    Zr10   O276      2.26125      .   S
    N273   O277      1.10116      .   S
    Zr50   O277      1.83327  1_455   S
    N278   O279      1.10130      .   S
    Zr30   O279      1.83364      .   S
    N278   O280      1.09806      .   S
    Zr31   O280      1.82430      .   S
    N278   O281      1.13710      .   S
    Zr15   O281      2.29101      .   S
    N278   O282      1.12453      .   S
    Zr0    O282      2.26137      .   S
    N283   O284      1.10381  1_556   S
    Zr41   O284      1.83664      .   S
    N283   O285      1.12990  1_556   S
    Zr5    O285      2.28026      .   S
    N283   O286      1.10213      .   S
    Zr40   O286      1.83531      .   S
    N283   O287      1.12552      .   S
    Zr6    O287      2.27340      .   S
    N288   O289      1.10131      .   S
    Zr54   O289      1.83364      .   S
    N288   O290      1.09809      .   S
    Zr55   O290      1.82430      .   S
    N288   O291      1.13707      .   S
    Zr3    O291      2.29098      .   S
    N288   O292      1.12449      .   S
    Zr12   O292      2.26142      .   S
    N293   O294      1.10131      .   S
    Zr38   O294      1.83364      .   S
    N293   O295      1.13708      .   S
    Zr11   O295      2.29099      .   S
    N293   O296      1.12449      .   S
    Zr4    O296      2.26140      .   S
    N293   O297      1.09810      .   S
    Zr39   O297      1.82433      .   S
    N298   O299      1.10236      .   S
    Zr44   O299      1.83555  1_545   S
    N298   O300      1.10353  1_556   S
    Zr45   O300      1.83635  1_545   S
    N298   O301      1.13073  1_556   S
    Zr11   O301      2.27876      .   S
    N298   O302      1.12590      .   S
    Zr8    O302      2.27378      .   S
    N303   O304      1.10244      .   S
    Zr56   O304      1.83565      .   S
    N303   O305      1.10354  1_554   S
    Zr57   O305      1.83636      .   S
    N303   O306      1.13060  1_554   S
    Zr13   O306      2.27864      .   S
    N303   O307      1.12600      .   S
    Zr14   O307      2.27386      .   S
    N308   O309      1.10358      .   S
    Zr53   O309      1.83649      .   S
    N308   O310      1.13059      .   S
    Zr15   O310      2.27862      .   S
    N308   O311      1.12586      .   S
    Zr12   O311      2.27374      .   S
    N308   O312      1.10233      .   S
    Zr52   O312      1.83551      .   S
    N313   O314      1.10880      .   S
    Zr49   O314      1.82604  1_565   S
    N313   O315      1.10074      .   S
    Zr48   O315      1.83402  1_565   S
    N313   O316      1.12666      .   S
    Zr10   O316      2.27446      .   S
    N313   O317      1.13005      .   S
    Zr9    O317      2.27817      .   S
    N318   O319      1.13058      .   S
    Zr1    O319      2.27858      .   S
    N318   O320      1.10231      .   S
    Zr32   O320      1.83548  1_545   S
    N318   O321      1.12585      .   S
    Zr2    O321      2.27372      .   S
    N318   O322      1.10350      .   S
    Zr33   O322      1.83634  1_545   S
    N323   O324      1.12442      .   S
    Zr14   O324      2.26122      .   S
    N323   O325      1.09800      .   S
    Zr59   O325      1.82406  1_655   S
    N323   O326      1.10115      .   S
    Zr58   O326      1.83325  1_655   S
    N323   O327      1.13691      .   S
    Zr1    O327      2.29075      .   S
    N328   O329      1.13708      .   S
    Zr7    O329      2.29097      .   S
    N328   O330      1.12451      .   S
    Zr8    O330      2.26144      .   S
    N328   O331      1.10132      .   S
    Zr46   O331      1.83365      .   S
    N328   O332      1.09810      .   S
    Zr47   O332      1.82434      .   S
    N333   O334      1.13155      .   S
    Zr7    O334      2.27957      .   S
    N333   O335      1.12489      .   S
    Zr4    O335      2.27278      .   S
    N333   O336      1.10405      .   S
    Zr37   O336      1.83688      .   S
    N333   O337      1.10183      .   S
    Zr36   O337      1.83499      .   S
    N338   O339      1.09801      .   S
    Zr43   O339      1.82406  1_455   S
    N338   O340      1.12442      .   S
    Zr6    O340      2.26119      .   S
    N338   O341      1.13694      .   S
    Zr9    O341      2.29066      .   S
    N338   O342      1.10116      .   S
    Zr42   O342      1.83326  1_455   S
    N343   O344      1.10116      .   S
    Zr34   O344      1.83327  1_655   S
    N343   O345      1.13692      .   S
    Zr13   O345      2.29063      .   S
    N343   O346      1.12444      .   S
    Zr2    O346      2.26123      .   S
    N343   O347      1.09802      .   S
    Zr35   O347      1.82407  1_655   S
