# CIF file generated by openbabel 2.4.90, see http://openbabel.sf.net
data_I
_chemical_name_common ''
_cell_length_a 14.53
_cell_length_b 15.861
_cell_length_c 16.411
_cell_angle_alpha 89.999
_cell_angle_beta 89.998
_cell_angle_gamma 89.999
_space_group_name_H-M_alt 'P 1'
_space_group_name_Hall 'P 1'
loop_
    _symmetry_equiv_pos_as_xyz
    x,y,z
loop_
    _atom_site_label
    _atom_site_type_symbol
    _atom_site_fract_x
    _atom_site_fract_y
    _atom_site_fract_z
    _atom_site_occupancy
    C0      C    0.35773   0.06152   0.22199   1.000
    C1      C    0.12228   0.97642   0.31419   1.000
    C2      C    0.14229   0.93835   0.72198   1.000
    C3      C    0.37768   0.02362   0.81415   1.000
    C4      C    0.64231   0.56152   0.27799   1.000
    C5      C    0.87777   0.47643   0.18579   1.000
    C6      C    0.85776   0.43836   0.77798   1.000
    C7      C    0.62236   0.52362   0.68581   1.000
    C8      C    0.64232   0.93846   0.77798   1.000
    C9      C    0.87776   0.02359   0.68579   1.000
    C10     C    0.85775   0.06166   0.27799   1.000
    C11     C    0.62237   0.97637   0.18582   1.000
    C12     C    0.35773   0.43847   0.72199   1.000
    C13     C    0.12228   0.52358   0.81418   1.000
    C14     C    0.14229   0.56165   0.22199   1.000
    C15     C    0.37767   0.47637   0.31417   1.000
    C16     C    0.00000   0.00000   0.00000   1.000
    C17     C    0.50002   0.00000   0.49990   1.000
    C18     C    0.00001   0.50000   0.49999   1.000
    C19     C    0.50002   0.50000   0.00000   1.000
    C20     C    0.45047   0.08025   0.02031   1.000
    C21     C    0.27948   0.25841   0.30307   1.000
    C22     C    0.62819   0.27815   0.17766   1.000
    C23     C    0.04958   0.91949   0.52028   1.000
    C24     C    0.22038   0.74152   0.80324   1.000
    C25     C    0.87177   0.72179   0.67769   1.000
    C26     C    0.54957   0.58026   0.47967   1.000
    C27     C    0.72056   0.75840   0.19693   1.000
    C28     C    0.37184   0.77815   0.32232   1.000
    C29     C    0.95046   0.41946   0.97969   1.000
    C30     C    0.77968   0.24154   0.69672   1.000
    C31     C    0.12830   0.22179   0.82227   1.000
    C32     C    0.54959   0.91971   0.97966   1.000
    C33     C    0.72056   0.74158   0.69690   1.000
    C34     C    0.37185   0.72184   0.82231   1.000
    C35     C    0.95045   0.08055   0.47970   1.000
    C36     C    0.77966   0.25850   0.19674   1.000
    C37     C    0.12827   0.27821   0.32228   1.000
    C38     C    0.45046   0.41970   0.52030   1.000
    C39     C    0.27949   0.24159   0.80306   1.000
    C40     C    0.62820   0.22184   0.67765   1.000
    C41     C    0.04960   0.58059   0.02020   1.000
    C42     C    0.22036   0.75847   0.30328   1.000
    C43     C    0.87175   0.77821   0.17770   1.000
    C44     C    0.17300   0.99917   0.12066   1.000
    C45     C    0.24425   0.01604   0.05792   1.000
    C46     C    0.38055   0.05618   0.01829   1.000
    C47     C    0.25095   0.00000   0.97279   1.000
    C48     C    0.19065   0.97060   0.90791   1.000
    C49     C    0.34847   0.26419   0.27883   1.000
    C50     C    0.47848   0.23167   0.22183   1.000
    C51     C    0.55431   0.38038   0.23753   1.000
    C52     C    0.48059   0.31690   0.24432   1.000
    C53     C    0.54834   0.17771   0.18442   1.000
    C54     C    0.32698   0.00075   0.62063   1.000
    C55     C    0.25576   0.98378   0.55790   1.000
    C56     C    0.11948   0.94359   0.51826   1.000
    C57     C    0.24906   0.99471   0.47280   1.000
    C58     C    0.30934   0.02931   0.40792   1.000
    C59     C    0.15141   0.73574   0.77896   1.000
    C60     C    0.02143   0.76827   0.72191   1.000
    C61     C    0.94564   0.61956   0.73758   1.000
    C62     C    0.01932   0.68304   0.74438   1.000
    C63     C    0.95164   0.82222   0.68444   1.000
    C64     C    0.82704   0.49917   0.37932   1.000
    C65     C    0.75578   0.51604   0.44206   1.000
    C66     C    0.61949   0.55619   0.48100   1.000
    C67     C    0.74910   0.50516   0.52717   1.000
    C68     C    0.80940   0.47060   0.59205   1.000
    C69     C    0.65158   0.76419   0.22117   1.000
    C70     C    0.52155   0.73167   0.27816   1.000
    C71     C    0.44573   0.88038   0.26245   1.000
    C72     C    0.51945   0.81690   0.25567   1.000
    C73     C    0.45169   0.67770   0.31556   1.000
    C74     C    0.67306   0.50074   0.87933   1.000
    C75     C    0.74429   0.48377   0.94206   1.000
    C76     C    0.88056   0.44357   0.98170   1.000
    C77     C    0.75098   0.49469   0.02718   1.000
    C78     C    0.69070   0.52930   0.09205   1.000
    C79     C    0.84864   0.23576   0.72100   1.000
    C80     C    0.97863   0.26827   0.77805   1.000
    C81     C    0.05441   0.11955   0.76238   1.000
    C82     C    0.98073   0.18304   0.75559   1.000
    C83     C    0.04842   0.32222   0.81552   1.000
    C84     C    0.82705   0.00082   0.87931   1.000
    C85     C    0.75580   0.98395   0.94205   1.000
    C86     C    0.61951   0.94378   0.98169   1.000
    C87     C    0.74909   0.99483   0.02718   1.000
    C88     C    0.80939   0.02940   0.09206   1.000
    C89     C    0.65158   0.73579   0.72114   1.000
    C90     C    0.52156   0.76832   0.77814   1.000
    C91     C    0.44573   0.61961   0.76244   1.000
    C92     C    0.51945   0.68309   0.75565   1.000
    C93     C    0.45170   0.82228   0.81555   1.000
    C94     C    0.67306   0.99925   0.37934   1.000
    C95     C    0.74428   0.01623   0.44207   1.000
    C96     C    0.88055   0.05644   0.48171   1.000
    C97     C    0.75098   0.00000   0.52718   1.000
    C98     C    0.69070   0.97070   0.59205   1.000
    C99     C    0.84862   0.26427   0.22101   1.000
    C100    C    0.97861   0.23174   0.27806   1.000
    C101    C    0.05440   0.38045   0.26239   1.000
    C102    C    0.98072   0.31697   0.25559   1.000
    C103    C    0.04840   0.17778   0.31553   1.000
    C104    C    0.17300   0.50082   0.62065   1.000
    C105    C    0.24426   0.48395   0.55792   1.000
    C106    C    0.38055   0.44378   0.51828   1.000
    C107    C    0.25094   0.49483   0.47280   1.000
    C108    C    0.19065   0.52939   0.40790   1.000
    C109    C    0.34847   0.23580   0.77882   1.000
    C110    C    0.47849   0.26832   0.72182   1.000
    C111    C    0.55432   0.11961   0.73752   1.000
    C112    C    0.48059   0.18309   0.74431   1.000
    C113    C    0.54835   0.32229   0.68442   1.000
    C114    C    0.32699   0.49926   0.12065   1.000
    C115    C    0.25576   0.51624   0.05792   1.000
    C116    C    0.11950   0.55647   0.01827   1.000
    C117    C    0.24907   0.50533   0.97279   1.000
    C118    C    0.30934   0.47070   0.90792   1.000
    C119    C    0.15139   0.76425   0.27899   1.000
    C120    C    0.02141   0.73173   0.22193   1.000
    C121    C    0.94563   0.88045   0.23759   1.000
    C122    C    0.01931   0.81697   0.24439   1.000
    C123    C    0.95163   0.67778   0.18445   1.000
    C124    C    0.32739   0.04784   0.08479   1.000
    C125    C    0.33799   0.03119   0.94968   1.000
    C126    C    0.39424   0.19942   0.24450   1.000
    C127    C    0.39796   0.33623   0.28012   1.000
    C128    C    0.17265   0.95192   0.58477   1.000
    C129    C    0.16203   0.96865   0.44969   1.000
    C130    C    0.10566   0.80052   0.74466   1.000
    C131    C    0.10192   0.66371   0.78022   1.000
    C132    C    0.67265   0.54785   0.41519   1.000
    C133    C    0.66205   0.53119   0.55028   1.000
    C134    C    0.60580   0.69941   0.25544   1.000
    C135    C    0.60209   0.83622   0.21988   1.000
    C136    C    0.82740   0.45190   0.91519   1.000
    C137    C    0.83801   0.46863   0.05000   1.000
    C138    C    0.89440   0.30053   0.75530   1.000
    C139    C    0.89813   0.16372   0.71974   1.000
    C140    C    0.67266   0.95213   0.91518   1.000
    C141    C    0.66206   0.96879   0.05029   1.000
    C142    C    0.60580   0.80057   0.75542   1.000
    C143    C    0.60208   0.66376   0.71985   1.000
    C144    C    0.82739   0.04811   0.41520   1.000
    C145    C    0.83801   0.03138   0.55029   1.000
    C146    C    0.89438   0.19949   0.25530   1.000
    C147    C    0.89812   0.33630   0.21975   1.000
    C148    C    0.32739   0.45213   0.58479   1.000
    C149    C    0.33799   0.46879   0.44970   1.000
    C150    C    0.39425   0.30058   0.74455   1.000
    C151    C    0.39796   0.16376   0.78010   1.000
    C152    C    0.17265   0.54813   0.08478   1.000
    C153    C    0.16204   0.53140   0.94968   1.000
    C154    C    0.10564   0.69948   0.24469   1.000
    C155    C    0.10191   0.83628   0.28020   1.000
    C156    C    0.19890   0.01091   0.19443   1.000
    C157    C    0.09182   0.97436   0.10414   1.000
    C158    C    0.22948   0.95867   0.83887   1.000
    C159    C    0.10589   0.95241   0.91730   1.000
    C160    C    0.62889   0.36199   0.20088   1.000
    C161    C    0.53113   0.10079   0.17358   1.000
    C162    C    0.62713   0.21114   0.16307   1.000
    C163    C    0.53894   0.45202   0.27098   1.000
    C164    C    0.30108   0.98905   0.69441   1.000
    C165    C    0.40814   0.02562   0.60410   1.000
    C166    C    0.27051   0.04127   0.33889   1.000
    C167    C    0.39410   0.04750   0.41733   1.000
    C168    C    0.87109   0.63793   0.70089   1.000
    C169    C    0.96889   0.89913   0.67356   1.000
    C170    C    0.87284   0.78881   0.66310   1.000
    C171    C    0.96107   0.54790   0.77098   1.000
    C172    C    0.80113   0.51091   0.30555   1.000
    C173    C    0.90823   0.47437   0.39584   1.000
    C174    C    0.77057   0.45867   0.66109   1.000
    C175    C    0.89416   0.45241   0.58264   1.000
    C176    C    0.37115   0.86199   0.29910   1.000
    C177    C    0.46891   0.60079   0.32640   1.000
    C178    C    0.37290   0.71114   0.33691   1.000
    C179    C    0.46111   0.95202   0.22900   1.000
    C180    C    0.69897   0.48905   0.80555   1.000
    C181    C    0.59190   0.52561   0.89585   1.000
    C182    C    0.72953   0.54126   0.16100   1.000
    C183    C    0.60593   0.54750   0.08260   1.000
    C184    C    0.12896   0.13793   0.79907   1.000
    C185    C    0.03117   0.39913   0.82641   1.000
    C186    C    0.12723   0.28880   0.83686   1.000
    C187    C    0.03898   0.04790   0.72899   1.000
    C188    C    0.80114   0.98909   0.80554   1.000
    C189    C    0.90823   0.02564   0.89583   1.000
    C190    C    0.77056   0.04132   0.16110   1.000
    C191    C    0.89415   0.04758   0.08264   1.000
    C192    C    0.37115   0.63801   0.79909   1.000
    C193    C    0.46892   0.89920   0.82639   1.000
    C194    C    0.37291   0.78885   0.83690   1.000
    C195    C    0.46110   0.54797   0.72899   1.000
    C196    C    0.69897   0.01095   0.30556   1.000
    C197    C    0.59190   0.97438   0.39587   1.000
    C198    C    0.72954   0.95873   0.66108   1.000
    C199    C    0.60594   0.95250   0.58264   1.000
    C200    C    0.12895   0.36207   0.29908   1.000
    C201    C    0.03114   0.10088   0.32641   1.000
    C202    C    0.12720   0.21120   0.33687   1.000
    C203    C    0.03898   0.45211   0.22899   1.000
    C204    C    0.19891   0.48909   0.69442   1.000
    C205    C    0.09182   0.52563   0.60413   1.000
    C206    C    0.22948   0.54132   0.33880   1.000
    C207    C    0.10589   0.54758   0.41734   1.000
    C208    C    0.62890   0.13800   0.70087   1.000
    C209    C    0.53113   0.39920   0.67357   1.000
    C210    C    0.62714   0.28885   0.66306   1.000
    C211    C    0.53894   0.04797   0.77097   1.000
    C212    C    0.30107   0.51094   0.19442   1.000
    C213    C    0.40814   0.47439   0.10412   1.000
    C214    C    0.27051   0.45874   0.83889   1.000
    C215    C    0.39410   0.45250   0.91733   1.000
    C216    C    0.87108   0.86208   0.20090   1.000
    C217    C    0.96889   0.60088   0.17357   1.000
    C218    C    0.87282   0.71120   0.16311   1.000
    C219    C    0.96106   0.95211   0.27099   1.000
    O220    O    0.94708   0.02379   0.04132   1.000
    O221    O    0.04591   0.98718   0.05207   1.000
    O222    O    0.95411   0.01282   0.94792   1.000
    O223    O    0.05295   0.97621   0.95865   1.000
    O224    O    0.08455   0.56853   0.01924   1.000
    O225    O    0.14608   0.55230   0.05153   1.000
    O226    O    0.14077   0.54393   0.98398   1.000
    O227    O    0.41551   0.06821   0.01930   1.000
    O228    O    0.35397   0.05201   0.05154   1.000
    O229    O    0.35927   0.04368   0.98398   1.000
    O230    O    0.79450   0.48166   0.03859   1.000
    O231    O    0.72084   0.51200   0.05962   1.000
    O232    O    0.74763   0.48923   0.98462   1.000
    O233    O    0.70558   0.98181   0.03874   1.000
    O234    O    0.77924   0.01211   0.05962   1.000
    O235    O    0.75245   0.98939   0.98462   1.000
    O236    O    0.85789   0.47253   0.11790   1.000
    O237    O    0.85928   0.45610   0.01585   1.000
    O238    O    0.64221   0.97258   0.11806   1.000
    O239    O    0.64078   0.95629   0.01599   1.000
    O240    O    0.28582   0.03194   0.07136   1.000
    O241    O    0.20862   0.00760   0.08929   1.000
    O242    O    0.24760   0.00802   0.01536   1.000
    O243    O    0.21421   0.53219   0.07135   1.000
    O244    O    0.29137   0.50775   0.08929   1.000
    O245    O    0.25241   0.51079   0.01536   1.000
    O246    O    0.64831   0.53840   0.08733   1.000
    O247    O    0.55298   0.52375   0.04130   1.000
    O248    O    0.85177   0.03849   0.08735   1.000
    O249    O    0.15747   0.55489   0.15339   1.000
    O250    O    0.34256   0.05468   0.15339   1.000
    O251    O    0.71011   0.53528   0.12652   1.000
    O252    O    0.78997   0.03536   0.12658   1.000
    O253    O    0.36756   0.48682   0.11239   1.000
    O254    O    0.45408   0.48719   0.05206   1.000
    O255    O    0.13241   0.98677   0.11240   1.000
    O256    O    0.31403   0.50510   0.15754   1.000
    O257    O    0.18595   0.00504   0.15755   1.000
    O258    O    0.68592   0.55139   0.21950   1.000
    O259    O    0.81415   0.05149   0.21955   1.000
    O260    O    0.62766   0.24465   0.17037   1.000
    O261    O    0.58774   0.19442   0.17375   1.000
    O262    O    0.87229   0.74471   0.17041   1.000
    O263    O    0.91223   0.69449   0.17378   1.000
    O264    O    0.96026   0.63933   0.17901   1.000
    O265    O    0.92333   0.53865   0.17968   1.000
    O266    O    0.53973   0.13925   0.17900   1.000
    O267    O    0.57675   0.03858   0.17970   1.000
    O268    O    0.51341   0.20469   0.20313   1.000
    O269    O    0.98652   0.70476   0.20319   1.000
    O270    O    0.88794   0.40636   0.20277   1.000
    O271    O    0.83945   0.49367   0.24567   1.000
    O272    O    0.61223   0.90629   0.20285   1.000
    O273    O    0.66067   0.99366   0.24569   1.000
    O274    O    0.33937   0.49366   0.25430   1.000
    O275    O    0.16059   0.99367   0.25431   1.000
    O276    O    0.81414   0.26138   0.20888   1.000
    O277    O    0.68607   0.76130   0.20905   1.000
    O278    O    0.59160   0.37118   0.21921   1.000
    O279    O    0.90836   0.87126   0.21924   1.000
    O280    O    0.87337   0.30028   0.22038   1.000
    O281    O    0.93942   0.32663   0.23767   1.000
    O282    O    0.62683   0.80021   0.22053   1.000
    O283    O    0.56077   0.82656   0.23778   1.000
    O284    O    0.87150   0.23188   0.23816   1.000
    O285    O    0.62869   0.73180   0.23831   1.000
    O286    O    0.47954   0.27428   0.23308   1.000
    O287    O    0.43636   0.21554   0.23317   1.000
    O288    O    0.02036   0.77435   0.23316   1.000
    O289    O    0.06353   0.71560   0.23331   1.000
    O290    O    0.40942   0.00677   0.22550   1.000
    O291    O    0.37599   0.13047   0.23325   1.000
    O292    O    0.31412   0.05140   0.28044   1.000
    O293    O    0.09063   0.50688   0.22549   1.000
    O294    O    0.12396   0.63056   0.23334   1.000
    O295    O    0.18588   0.55148   0.28040   1.000
    O296    O    0.04669   0.41628   0.24569   1.000
    O297    O    0.45342   0.91620   0.24573   1.000
    O298    O    0.51745   0.34864   0.24093   1.000
    O299    O    0.54662   0.41620   0.25426   1.000
    O300    O    0.98247   0.84871   0.24099   1.000
    O301    O    0.95335   0.91628   0.25429   1.000
    O302    O    0.43927   0.32656   0.26222   1.000
    O303    O    0.06061   0.82662   0.26230   1.000
    O304    O    0.37136   0.23181   0.26167   1.000
    O305    O    0.12852   0.73186   0.26184   1.000
    O306    O    0.87606   0.13057   0.26665   1.000
    O307    O    0.93649   0.21561   0.26668   1.000
    O308    O    0.62405   0.63046   0.26672   1.000
    O309    O    0.56367   0.71554   0.26680   1.000
    O310    O    0.01756   0.34871   0.25899   1.000
    O311    O    0.97966   0.27435   0.26683   1.000
    O312    O    0.48259   0.84864   0.25906   1.000
    O313    O    0.52050   0.77428   0.26692   1.000
    O314    O    0.09168   0.37126   0.28074   1.000
    O315    O    0.40844   0.87119   0.28077   1.000
    O316    O    0.59062   0.50677   0.27449   1.000
    O317    O    0.90940   0.00688   0.27449   1.000
    O318    O    0.84257   0.05488   0.34660   1.000
    O319    O    0.65748   0.55468   0.34659   1.000
    O320    O    0.01350   0.20476   0.29680   1.000
    O321    O    0.48662   0.70469   0.29686   1.000
    O322    O    0.37321   0.30021   0.27948   1.000
    O323    O    0.31398   0.26130   0.29095   1.000
    O324    O    0.12665   0.80027   0.27960   1.000
    O325    O    0.18588   0.76136   0.29114   1.000
    O326    O    0.38782   0.40630   0.29714   1.000
    O327    O    0.11209   0.90635   0.29719   1.000
    O328    O    0.81409   0.50504   0.34244   1.000
    O329    O    0.68601   0.00510   0.34245   1.000
    O330    O    0.42329   0.53858   0.32029   1.000
    O331    O    0.35783   0.47258   0.38194   1.000
    O332    O    0.07671   0.03865   0.32030   1.000
    O333    O    0.14215   0.97254   0.38194   1.000
    O334    O    0.03977   0.13933   0.32097   1.000
    O335    O    0.08780   0.19449   0.32620   1.000
    O336    O    0.46030   0.63925   0.32098   1.000
    O337    O    0.41230   0.69442   0.32624   1.000
    O338    O    0.12774   0.24470   0.32958   1.000
    O339    O    0.37237   0.74465   0.32962   1.000
    O340    O    0.21006   0.53536   0.37335   1.000
    O341    O    0.28992   0.03529   0.37341   1.000
    O342    O    0.86764   0.48677   0.38758   1.000
    O343    O    0.79141   0.50760   0.41069   1.000
    O344    O    0.63248   0.98682   0.38761   1.000
    O345    O    0.70867   0.00774   0.41071   1.000
    O346    O    0.95412   0.48718   0.44792   1.000
    O347    O    0.54596   0.98719   0.44789   1.000
    O348    O    0.14827   0.53849   0.41262   1.000
    O349    O    0.22080   0.51211   0.44035   1.000
    O350    O    0.35172   0.03840   0.41263   1.000
    O351    O    0.27920   0.01201   0.44036   1.000
    O352    O    0.71422   0.53194   0.42863   1.000
    O353    O    0.64607   0.55202   0.44810   1.000
    O354    O    0.78583   0.03217   0.42864   1.000
    O355    O    0.85397   0.05228   0.44846   1.000
    O356    O    0.44706   0.02375   0.45862   1.000
    O357    O    0.05295   0.52379   0.45867   1.000
    O358    O    0.75244   0.51060   0.48462   1.000
    O359    O    0.74763   0.00812   0.48463   1.000
    O360    O    0.20554   0.98168   0.46125   1.000
    O361    O    0.14075   0.95612   0.48398   1.000
    O362    O    0.29447   0.48181   0.46125   1.000
    O363    O    0.35927   0.45628   0.48399   1.000
    O364    O    0.24760   0.48939   0.51536   1.000
    O365    O    0.25241   0.98924   0.51535   1.000
    O366    O    0.58453   0.56822   0.48034   1.000
    O367    O    0.91550   0.06850   0.48071   1.000
    O368    O    0.64077   0.54369   0.51564   1.000
    O369    O    0.85928   0.04391   0.51600   1.000
    O370    O    0.55298   0.97625   0.54127   1.000
    O371    O    0.45408   0.01281   0.55200   1.000
    O372    O    0.94708   0.47620   0.54132   1.000
    O373    O    0.04591   0.51282   0.55206   1.000
    O374    O    0.08453   0.93154   0.51927   1.000
    O375    O    0.14606   0.94775   0.55152   1.000
    O376    O    0.41550   0.43174   0.51929   1.000
    O377    O    0.35397   0.44795   0.55154   1.000
    O378    O    0.70557   0.51817   0.53873   1.000
    O379    O    0.77925   0.48788   0.55961   1.000
    O380    O    0.79450   0.01569   0.53873   1.000
    O381    O    0.72084   0.98535   0.55961   1.000
    O382    O    0.64221   0.52740   0.61805   1.000
    O383    O    0.85789   0.02748   0.61804   1.000
    O384    O    0.21420   0.96785   0.57134   1.000
    O385    O    0.29137   0.99227   0.58927   1.000
    O386    O    0.28582   0.46804   0.57136   1.000
    O387    O    0.20863   0.49238   0.58929   1.000
    O388    O    0.64832   0.96160   0.58735   1.000
    O389    O    0.85178   0.46151   0.58735   1.000
    O390    O    0.15747   0.94514   0.65337   1.000
    O391    O    0.34256   0.44530   0.65339   1.000
    O392    O    0.71012   0.96471   0.62657   1.000
    O393    O    0.78998   0.46464   0.62657   1.000
    O394    O    0.36756   0.01318   0.61236   1.000
    O395    O    0.13241   0.51323   0.61239   1.000
    O396    O    0.31403   0.99490   0.65752   1.000
    O397    O    0.18596   0.49495   0.65754   1.000
    O398    O    0.68593   0.94860   0.71953   1.000
    O399    O    0.81416   0.44852   0.71954   1.000
    O400    O    0.62767   0.25535   0.67036   1.000
    O401    O    0.58774   0.30557   0.67374   1.000
    O402    O    0.87230   0.75530   0.67040   1.000
    O403    O    0.91224   0.80552   0.67377   1.000
    O404    O    0.96027   0.86068   0.67900   1.000
    O405    O    0.92333   0.96136   0.67968   1.000
    O406    O    0.53974   0.36075   0.67900   1.000
    O407    O    0.57675   0.46141   0.67969   1.000
    O408    O    0.51342   0.29531   0.70312   1.000
    O409    O    0.98653   0.79525   0.70318   1.000
    O410    O    0.88795   0.09366   0.70277   1.000
    O411    O    0.83945   0.00634   0.74567   1.000
    O412    O    0.61222   0.59369   0.70283   1.000
    O413    O    0.66067   0.50633   0.74568   1.000
    O414    O    0.33938   0.00634   0.75428   1.000
    O415    O    0.16060   0.50633   0.75430   1.000
    O416    O    0.81416   0.23865   0.70886   1.000
    O417    O    0.68607   0.73868   0.70902   1.000
    O418    O    0.59161   0.12881   0.71920   1.000
    O419    O    0.90837   0.62874   0.71924   1.000
    O420    O    0.87339   0.19974   0.72037   1.000
    O421    O    0.93943   0.17338   0.73767   1.000
    O422    O    0.62683   0.69978   0.72050   1.000
    O423    O    0.56077   0.67343   0.73775   1.000
    O424    O    0.87152   0.26814   0.73815   1.000
    O425    O    0.62869   0.76818   0.73828   1.000
    O426    O    0.47954   0.22571   0.73307   1.000
    O427    O    0.43637   0.28445   0.73319   1.000
    O428    O    0.02038   0.72565   0.73315   1.000
    O429    O    0.06354   0.78440   0.73329   1.000
    O430    O    0.09064   0.99313   0.72549   1.000
    O431    O    0.12398   0.86944   0.73332   1.000
    O432    O    0.18589   0.94851   0.78043   1.000
    O433    O    0.40942   0.49322   0.72549   1.000
    O434    O    0.37599   0.36952   0.73327   1.000
    O435    O    0.31412   0.44860   0.78044   1.000
    O436    O    0.04669   0.08373   0.74569   1.000
    O437    O    0.45341   0.58379   0.74572   1.000
    O438    O    0.51746   0.15135   0.74092   1.000
    O439    O    0.54663   0.08379   0.75425   1.000
    O440    O    0.98248   0.65130   0.74098   1.000
    O441    O    0.95335   0.58373   0.75428   1.000
    O442    O    0.43928   0.17343   0.76221   1.000
    O443    O    0.06062   0.67338   0.76230   1.000
    O444    O    0.37136   0.26819   0.76169   1.000
    O445    O    0.12854   0.76813   0.76181   1.000
    O446    O    0.87608   0.36944   0.76664   1.000
    O447    O    0.93652   0.28440   0.76668   1.000
    O448    O    0.62406   0.86952   0.76670   1.000
    O449    O    0.56368   0.78444   0.76678   1.000
    O450    O    0.01757   0.15130   0.75899   1.000
    O451    O    0.97968   0.22566   0.76682   1.000
    O452    O    0.48259   0.65135   0.75905   1.000
    O453    O    0.52051   0.72571   0.76690   1.000
    O454    O    0.09169   0.12874   0.78073   1.000
    O455    O    0.40844   0.62881   0.78076   1.000
    O456    O    0.59063   0.99322   0.77448   1.000
    O457    O    0.90941   0.49313   0.77448   1.000
    O458    O    0.65749   0.94530   0.84658   1.000
    O459    O    0.84258   0.44513   0.84659   1.000
    O460    O    0.01353   0.29525   0.79679   1.000
    O461    O    0.48663   0.79530   0.79685   1.000
    O462    O    0.37322   0.19978   0.77946   1.000
    O463    O    0.31398   0.23869   0.79094   1.000
    O464    O    0.12667   0.69973   0.77959   1.000
    O465    O    0.18590   0.73863   0.79110   1.000
    O466    O    0.38782   0.09369   0.79713   1.000
    O467    O    0.11210   0.59365   0.79720   1.000
    O468    O    0.81409   0.99495   0.84243   1.000
    O469    O    0.68602   0.49490   0.84244   1.000
    O470    O    0.42330   0.96141   0.82027   1.000
    O471    O    0.35783   0.02740   0.88192   1.000
    O472    O    0.07672   0.46135   0.82030   1.000
    O473    O    0.14216   0.52749   0.88193   1.000
    O474    O    0.03979   0.36067   0.82097   1.000
    O475    O    0.08783   0.30551   0.82619   1.000
    O476    O    0.46031   0.86074   0.82097   1.000
    O477    O    0.41231   0.80557   0.82623   1.000
    O478    O    0.12776   0.25530   0.82957   1.000
    O479    O    0.37238   0.75535   0.82961   1.000
    O480    O    0.21007   0.96463   0.87339   1.000
    O481    O    0.28993   0.46472   0.87341   1.000
    O482    O    0.86764   0.01323   0.88757   1.000
    O483    O    0.79142   0.99238   0.91068   1.000
    O484    O    0.63248   0.51318   0.88759   1.000
    O485    O    0.70867   0.49226   0.91070   1.000
    O486    O    0.54596   0.51281   0.94793   1.000
    O487    O    0.14827   0.96150   0.91261   1.000
    O488    O    0.22080   0.98530   0.94035   1.000
    O489    O    0.35172   0.46160   0.91263   1.000
    O490    O    0.27921   0.48801   0.94036   1.000
    O491    O    0.71423   0.96804   0.92862   1.000
    O492    O    0.64608   0.94796   0.94844   1.000
    O493    O    0.78584   0.46784   0.92863   1.000
    O494    O    0.85398   0.44773   0.94845   1.000
    O495    O    0.44706   0.47625   0.95867   1.000
    O496    O    0.29447   0.01559   0.96124   1.000
    O497    O    0.20555   0.51836   0.96124   1.000
    O498    O    0.58455   0.93175   0.98068   1.000
    O499    O    0.91551   0.43151   0.98070   1.000
    O500    O    0.27832   0.03622   0.20821   1.000
    O501    O    0.30358   0.99115   0.82651   1.000
    O502    O    0.45831   0.46420   0.29258   1.000
    O503    O    0.22168   0.96370   0.70820   1.000
    O504    O    0.19639   0.00885   0.32654   1.000
    O505    O    0.04167   0.53574   0.79258   1.000
    O506    O    0.72172   0.53621   0.29177   1.000
    O507    O    0.69647   0.49115   0.67345   1.000
    O508    O    0.54174   0.96419   0.20741   1.000
    O509    O    0.77837   0.46371   0.79177   1.000
    O510    O    0.80365   0.50885   0.17340   1.000
    O511    O    0.95837   0.03574   0.70739   1.000
    O512    O    0.72173   0.96378   0.79176   1.000
    O513    O    0.69646   0.00884   0.17346   1.000
    O514    O    0.54173   0.53579   0.70740   1.000
    O515    O    0.77836   0.03630   0.29178   1.000
    O516    O    0.80365   0.99116   0.67344   1.000
    O517    O    0.95837   0.46427   0.20739   1.000
    O518    O    0.27832   0.46378   0.70821   1.000
    O519    O    0.30358   0.50884   0.32649   1.000
    O520    O    0.45831   0.03579   0.79256   1.000
    O521    O    0.22168   0.53630   0.20821   1.000
    O522    O    0.19639   0.49116   0.82654   1.000
    O523    O    0.04167   0.96427   0.29259   1.000
loop_
    _geom_bond_atom_site_label_1
    _geom_bond_atom_site_label_2
    _geom_bond_distance
    _geom_bond_site_symmetry_2
    _ccdc_geom_bond_type
    C16    O220      1.09250  1_455   S
    C191   O220      1.09250      .   S
    C16    O221      1.10296  1_545   S
    C157   O221      1.10296      .   S
    C16    O222      1.10297  1_454   S
    C189   O222      1.10297      .   S
    C16    O223      1.09302  1_544   S
    C159   O223      1.09302      .   S
    C116   O224      0.54287      .   S
    C41    O224      0.54287      .   S
    C116   O225      0.67184      .   S
    C152   O225      0.67184      .   S
    C116   O226      0.67215  1_554   S
    C153   O226      0.67215      .   S
    C46    O227      0.54288      .   S
    C20    O227      0.54288      .   S
    C46    O228      0.67176      .   S
    C124   O228      0.67176      .   S
    C46    O229      0.67219  1_554   S
    C125   O229      0.67219      .   S
    C77    O230      0.69108      .   S
    C137   O230      0.69108      .   S
    C77    O231      0.74194      .   S
    C78    O231      0.74194      .   S
    C77    O232      0.70548  1_554   S
    C75    O232      0.70548      .   S
    C87    O233      0.69170      .   S
    C141   O233      0.69170      .   S
    C87    O234      0.74195  1_565   S
    C88    O234      0.74195      .   S
    C87    O235      0.70552  1_554   S
    C85    O235      0.70552      .   S
    C137   O236      1.15272      .   S
    C5     O236      1.15272      .   S
    C137   O237      0.67016      .   S
    C76    O237      0.67016  1_556   S
    C141   O238      1.15042      .   S
    C11    O238      1.15042      .   S
    C141   O239      0.67213      .   S
    C86    O239      0.67213  1_556   S
    C45    O240      0.69069      .   S
    C124   O240      0.69069      .   S
    C45    O241      0.74221      .   S
    C44    O241      0.74221  1_565   S
    C45    O242      0.71168      .   S
    C47    O242      0.71168  1_556   S
    C115   O243      0.69068      .   S
    C152   O243      0.69068      .   S
    C115   O244      0.74220      .   S
    C114   O244      0.74220      .   S
    C115   O245      0.70556      .   S
    C117   O245      0.70556  1_556   S
    C183   O246      0.63720      .   S
    C78    O246      0.63720      .   S
    C183   O247      1.09244      .   S
    C19    O247      1.09244      .   S
    C191   O248      0.63715      .   S
    C88    O248      0.63715      .   S
    C152   O249      1.15228      .   S
    C14    O249      1.15228      .   S
    C124   O250      1.15230      .   S
    C0     O250      1.15230      .   S
    C78    O251      0.63930      .   S
    C182   O251      0.63930      .   S
    C88    O252      0.63989      .   S
    C190   O252      0.63989      .   S
    C213   O253      0.63634      .   S
    C114   O253      0.63634      .   S
    C213   O254      1.10304      .   S
    C19    O254      1.10304      .   S
    C157   O255      0.63636      .   S
    C44    O255      0.63636      .   S
    C114   O256      0.64066      .   S
    C212   O256      0.64066      .   S
    C44    O257      0.64071  1_565   S
    C156   O257      0.64071      .   S
    C182   O258      1.16139      .   S
    C4     O258      1.16139      .   S
    C190   O259      1.16071      .   S
    C10    O259      1.16071      .   S
    C162   O260      0.54481      .   S
    C22    O260      0.54481      .   S
    C162   O261      0.65469      .   S
    C53    O261      0.65469      .   S
    C218   O262      0.54482      .   S
    C43    O262      0.54482      .   S
    C218   O263      0.65472      .   S
    C123   O263      0.65472      .   S
    C217   O264      0.62902      .   S
    C123   O264      0.62902      .   S
    C217   O265      1.19260      .   S
    C5     O265      1.19260      .   S
    C161   O266      0.62901      .   S
    C53    O266      0.62901      .   S
    C161   O267      1.19296      .   S
    C11    O267      1.19296  1_565   S
    C53    O268      0.73140      .   S
    C50    O268      0.73140      .   S
    C123   O269      0.73122      .   S
    C120   O269      0.73122  1_455   S
    C5     O270      1.15525      .   S
    C147   O270      1.15525      .   S
    C5     O271      1.16206      .   S
    C172   O271      1.16206      .   S
    C11    O272      1.15542      .   S
    C135   O272      1.15542      .   S
    C11    O273      1.16203      .   S
    C196   O273      1.16203  1_545   S
    C212   O274      1.16210      .   S
    C15    O274      1.16210      .   S
    C156   O275      1.16205  1_545   S
    C1     O275      1.16205      .   S
    C36    O276      0.54113      .   S
    C99    O276      0.54113      .   S
    C27    O277      0.54115      .   S
    C69    O277      0.54115      .   S
    C160   O278      0.63658      .   S
    C51    O278      0.63658      .   S
    C216   O279      0.63656      .   S
    C121   O279      0.63656      .   S
    C147   O280      0.67505      .   S
    C99    O280      0.67505      .   S
    C147   O281      0.68564      .   S
    C102   O281      0.68564      .   S
    C135   O282      0.67507      .   S
    C69    O282      0.67507      .   S
    C135   O283      0.68567      .   S
    C72    O283      0.68567      .   S
    C99    O284      0.67346      .   S
    C146   O284      0.67346      .   S
    C69    O285      0.67349      .   S
    C134   O285      0.67349      .   S
    C50    O286      0.70082      .   S
    C52    O286      0.70082      .   S
    C50    O287      0.68889      .   S
    C126   O287      0.68889      .   S
    C120   O288      0.70079      .   S
    C122   O288      0.70079      .   S
    C120   O289      0.68903      .   S
    C154   O289      0.68903      .   S
    C0     O290      1.14955      .   S
    C179   O290      1.14955  1_565   S
    C0     O291      1.14036      .   S
    C126   O291      1.14036      .   S
    C0     O292      1.16078      .   S
    C166   O292      1.16078      .   S
    C14    O293      1.14947      .   S
    C203   O293      1.14947      .   S
    C14    O294      1.14032      .   S
    C154   O294      1.14032      .   S
    C14    O295      1.16017      .   S
    C206   O295      1.16017      .   S
    C203   O296      0.64079      .   S
    C101   O296      0.64079      .   S
    C179   O297      0.64079      .   S
    C71    O297      0.64079      .   S
    C51    O298      0.73719      .   S
    C52    O298      0.73719      .   S
    C51    O299      0.64081      .   S
    C163   O299      0.64081      .   S
    C121   O300      0.73698      .   S
    C122   O300      0.73698  1_455   S
    C121   O301      0.64081      .   S
    C219   O301      0.64081      .   S
    C52    O302      0.68568      .   S
    C127   O302      0.68568      .   S
    C122   O303      0.68549      .   S
    C155   O303      0.68549      .   S
    C126   O304      0.67367      .   S
    C49    O304      0.67367      .   S
    C154   O305      0.67348      .   S
    C119   O305      0.67348      .   S
    C146   O306      1.14033      .   S
    C10    O306      1.14033      .   S
    C146   O307      0.68904      .   S
    C100   O307      0.68904      .   S
    C134   O308      1.14042      .   S
    C4     O308      1.14042      .   S
    C134   O309      0.68901      .   S
    C70    O309      0.68901      .   S
    C102   O310      0.73699  1_655   S
    C101   O310      0.73699      .   S
    C102   O311      0.70080      .   S
    C100   O311      0.70080      .   S
    C72    O312      0.73719      .   S
    C71    O312      0.73719      .   S
    C72    O313      0.70083      .   S
    C70    O313      0.70083      .   S
    C101   O314      0.63658      .   S
    C200   O314      0.63658      .   S
    C71    O315      0.63660      .   S
    C176   O315      0.63660      .   S
    C163   O316      1.14948      .   S
    C4     O316      1.14948      .   S
    C219   O317      1.14952  1_565   S
    C10    O317      1.14952      .   S
    C10    O318      1.15228      .   S
    C144   O318      1.15228      .   S
    C4     O319      1.15229      .   S
    C132   O319      1.15229      .   S
    C100   O320      0.73121  1_655   S
    C103   O320      0.73121      .   S
    C70    O321      0.73139      .   S
    C73    O321      0.73139      .   S
    C49    O322      0.67507      .   S
    C127   O322      0.67507      .   S
    C49    O323      0.54113      .   S
    C21    O323      0.54113      .   S
    C119   O324      0.67505      .   S
    C155   O324      0.67505      .   S
    C119   O325      0.54116      .   S
    C42    O325      0.54116      .   S
    C127   O326      1.15542      .   S
    C15    O326      1.15542      .   S
    C155   O327      1.15537      .   S
    C1     O327      1.15537      .   S
    C172   O328      0.64072      .   S
    C64    O328      0.64072      .   S
    C196   O329      0.64073      .   S
    C94    O329      0.64073  1_565   S
    C15    O330      1.19288      .   S
    C177   O330      1.19288      .   S
    C15    O331      1.15042      .   S
    C149   O331      1.15042      .   S
    C1     O332      1.19268  1_565   S
    C201   O332      1.19268      .   S
    C1     O333      1.15040      .   S
    C129   O333      1.15040      .   S
    C103   O334      0.62902      .   S
    C201   O334      0.62902      .   S
    C103   O335      0.65471      .   S
    C202   O335      0.65471      .   S
    C73    O336      0.62901      .   S
    C177   O336      0.62901      .   S
    C73    O337      0.65469      .   S
    C178   O337      0.65469      .   S
    C37    O338      0.54484      .   S
    C202   O338      0.54484      .   S
    C28    O339      0.54482      .   S
    C178   O339      0.54482      .   S
    C206   O340      0.64033      .   S
    C108   O340      0.64033      .   S
    C166   O341      0.63988      .   S
    C58    O341      0.63988      .   S
    C64    O342      0.63636      .   S
    C173   O342      0.63636      .   S
    C64    O343      0.74224      .   S
    C65    O343      0.74224      .   S
    C94    O344      0.63634      .   S
    C197   O344      0.63634      .   S
    C94    O345      0.74217  1_565   S
    C95    O345      0.74217      .   S
    C173   O346      1.10286      .   S
    C18    O346      1.10286  1_455   S
    C197   O347      1.10251      .   S
    C17    O347      1.10251  1_545   S
    C108   O348      0.63718      .   S
    C207   O348      0.63718      .   S
    C108   O349      0.74205      .   S
    C107   O349      0.74205      .   S
    C58    O350      0.63716      .   S
    C167   O350      0.63716      .   S
    C58    O351      0.74198      .   S
    C57    O351      0.74198  1_565   S
    C132   O352      0.69069      .   S
    C65    O352      0.69069      .   S
    C132   O353      0.66717      .   S
    C66    O353      0.66717      .   S
    C144   O354      0.69070      .   S
    C95    O354      0.69070      .   S
    C144   O355      0.67184      .   S
    C96    O355      0.67184      .   S
    C167   O356      1.09227      .   S
    C17    O356      1.09227      .   S
    C207   O357      1.09271      .   S
    C18    O357      1.09271      .   S
    C65    O358      0.70535      .   S
    C67    O358      0.70535      .   S
    C95    O359      0.71181      .   S
    C97    O359      0.71181      .   S
    C129   O360      0.69170      .   S
    C57    O360      0.69170      .   S
    C129   O361      0.67199      .   S
    C56    O361      0.67199      .   S
    C149   O362      0.69172      .   S
    C107   O362      0.69172      .   S
    C149   O363      0.67200      .   S
    C106   O363      0.67200      .   S
    C107   O364      0.70543      .   S
    C105   O364      0.70543      .   S
    C57    O365      0.70533      .   S
    C55    O365      0.70533      .   S
    C26    O366      0.54274      .   S
    C66    O366      0.54274      .   S
    C35    O367      0.54288      .   S
    C96    O367      0.54288      .   S
    C66    O368      0.67681      .   S
    C133   O368      0.67681      .   S
    C96    O369      0.67207      .   S
    C145   O369      0.67207      .   S
    C17    O370      1.09320  1_545   S
    C199   O370      1.09320      .   S
    C17    O371      1.10354      .   S
    C165   O371      1.10354      .   S
    C18    O372      1.09254  1_455   S
    C175   O372      1.09254      .   S
    C18    O373      1.10295      .   S
    C205   O373      1.10295      .   S
    C56    O374      0.54288      .   S
    C23    O374      0.54288      .   S
    C56    O375      0.67185      .   S
    C128   O375      0.67185      .   S
    C106   O376      0.54288      .   S
    C38    O376      0.54288      .   S
    C106   O377      0.67182      .   S
    C148   O377      0.67182      .   S
    C67    O378      0.69175      .   S
    C133   O378      0.69175      .   S
    C67    O379      0.74192      .   S
    C68    O379      0.74192      .   S
    C97    O380      0.70542      .   S
    C145   O380      0.70542      .   S
    C97    O381      0.72741  1_545   S
    C98    O381      0.72741      .   S
    C133   O382      1.15041      .   S
    C7     O382      1.15041      .   S
    C145   O383      1.15041      .   S
    C9     O383      1.15041      .   S
    C55    O384      0.69069      .   S
    C128   O384      0.69069      .   S
    C55    O385      0.74217      .   S
    C54    O385      0.74217  1_545   S
    C105   O386      0.69069      .   S
    C148   O386      0.69069      .   S
    C105   O387      0.74218      .   S
    C104   O387      0.74218      .   S
    C199   O388      0.63715      .   S
    C98    O388      0.63715      .   S
    C175   O389      0.63714      .   S
    C68    O389      0.63714      .   S
    C128   O390      1.15229      .   S
    C2     O390      1.15229      .   S
    C148   O391      1.15228      .   S
    C12    O391      1.15228      .   S
    C98    O392      0.63989      .   S
    C198   O392      0.63989      .   S
    C68    O393      0.63988      .   S
    C174   O393      0.63988      .   S
    C165   O394      0.63635      .   S
    C54    O394      0.63635      .   S
    C205   O395      0.63635      .   S
    C104   O395      0.63635      .   S
    C54    O396      0.64073  1_545   S
    C164   O396      0.64073      .   S
    C104   O397      0.64072      .   S
    C204   O397      0.64072      .   S
    C198   O398      1.16078      .   S
    C8     O398      1.16078      .   S
    C174   O399      1.16070      .   S
    C6     O399      1.16070      .   S
    C210   O400      0.54482      .   S
    C40    O400      0.54482      .   S
    C210   O401      0.65471      .   S
    C113   O401      0.65471      .   S
    C170   O402      0.54483      .   S
    C25    O402      0.54483      .   S
    C170   O403      0.65472      .   S
    C63    O403      0.65472      .   S
    C169   O404      0.62902      .   S
    C63    O404      0.62902      .   S
    C169   O405      1.19271      .   S
    C9     O405      1.19271  1_545   S
    C209   O406      0.62901      .   S
    C113   O406      0.62901      .   S
    C209   O407      1.19287      .   S
    C7     O407      1.19287      .   S
    C113   O408      0.73137      .   S
    C110   O408      0.73137      .   S
    C63    O409      0.73121      .   S
    C60    O409      0.73121  1_455   S
    C9     O410      1.15525      .   S
    C139   O410      1.15525      .   S
    C9     O411      1.16200      .   S
    C188   O411      1.16200  1_565   S
    C7     O412      1.15541      .   S
    C143   O412      1.15541      .   S
    C7     O413      1.16202      .   S
    C180   O413      1.16202      .   S
    C164   O414      1.16202  1_565   S
    C3     O414      1.16202      .   S
    C204   O415      1.16208      .   S
    C13    O415      1.16208      .   S
    C30    O416      0.54115      .   S
    C79    O416      0.54115      .   S
    C33    O417      0.54114      .   S
    C89    O417      0.54114      .   S
    C208   O418      0.63660      .   S
    C111   O418      0.63660      .   S
    C168   O419      0.63657      .   S
    C61    O419      0.63657      .   S
    C139   O420      0.67506      .   S
    C79    O420      0.67506      .   S
    C139   O421      0.68566      .   S
    C82    O421      0.68566      .   S
    C143   O422      0.67507      .   S
    C89    O422      0.67507      .   S
    C143   O423      0.68567      .   S
    C92    O423      0.68567      .   S
    C79    O424      0.67349      .   S
    C138   O424      0.67349      .   S
    C89    O425      0.67350      .   S
    C142   O425      0.67350      .   S
    C110   O426      0.70082      .   S
    C112   O426      0.70082      .   S
    C110   O427      0.68902      .   S
    C150   O427      0.68902      .   S
    C60    O428      0.70080      .   S
    C62    O428      0.70080      .   S
    C60    O429      0.68902      .   S
    C130   O429      0.68902      .   S
    C2     O430      1.14951      .   S
    C187   O430      1.14951  1_545   S
    C2     O431      1.14031      .   S
    C130   O431      1.14031      .   S
    C2     O432      1.16070      .   S
    C158   O432      1.16070      .   S
    C12    O433      1.14949      .   S
    C195   O433      1.14949      .   S
    C12    O434      1.14044      .   S
    C150   O434      1.14044      .   S
    C12    O435      1.16080      .   S
    C214   O435      1.16080      .   S
    C187   O436      0.64077      .   S
    C81    O436      0.64077      .   S
    C195   O437      0.64081      .   S
    C91    O437      0.64081      .   S
    C111   O438      0.73719      .   S
    C112   O438      0.73719      .   S
    C111   O439      0.64079      .   S
    C211   O439      0.64079      .   S
    C61    O440      0.73699      .   S
    C62    O440      0.73699  1_455   S
    C61    O441      0.64079      .   S
    C171   O441      0.64079      .   S
    C112   O442      0.68565      .   S
    C151   O442      0.68565      .   S
    C62    O443      0.68563      .   S
    C131   O443      0.68563      .   S
    C150   O444      0.67348      .   S
    C109   O444      0.67348      .   S
    C130   O445      0.67349      .   S
    C59    O445      0.67349      .   S
    C138   O446      1.14029      .   S
    C6     O446      1.14029      .   S
    C138   O447      0.68902      .   S
    C80    O447      0.68902      .   S
    C142   O448      1.14044      .   S
    C8     O448      1.14044      .   S
    C142   O449      0.68900      .   S
    C90    O449      0.68900      .   S
    C82    O450      0.73698  1_655   S
    C81    O450      0.73698      .   S
    C82    O451      0.70079      .   S
    C80    O451      0.70079      .   S
    C92    O452      0.73720      .   S
    C91    O452      0.73720      .   S
    C92    O453      0.70082      .   S
    C90    O453      0.70082      .   S
    C81    O454      0.63657      .   S
    C184   O454      0.63657      .   S
    C91    O455      0.63658      .   S
    C192   O455      0.63658      .   S
    C211   O456      1.14957  1_545   S
    C8     O456      1.14957      .   S
    C171   O457      1.14944      .   S
    C6     O457      1.14944      .   S
    C8     O458      1.15229      .   S
    C140   O458      1.15229      .   S
    C6     O459      1.15229      .   S
    C136   O459      1.15229      .   S
    C80    O460      0.73121  1_655   S
    C83    O460      0.73121      .   S
    C90    O461      0.73140      .   S
    C93    O461      0.73140      .   S
    C109   O462      0.67507      .   S
    C151   O462      0.67507      .   S
    C109   O463      0.54113      .   S
    C39    O463      0.54113      .   S
    C59    O464      0.67505      .   S
    C131   O464      0.67505      .   S
    C59    O465      0.54116      .   S
    C24    O465      0.54116      .   S
    C151   O466      1.15542      .   S
    C3     O466      1.15542      .   S
    C131   O467      1.15524      .   S
    C13    O467      1.15524      .   S
    C188   O468      0.64071      .   S
    C84    O468      0.64071  1_545   S
    C180   O469      0.64074      .   S
    C74    O469      0.64074      .   S
    C3     O470      1.19294  1_545   S
    C193   O470      1.19294      .   S
    C3     O471      1.15041      .   S
    C125   O471      1.15041      .   S
    C13    O472      1.19262      .   S
    C185   O472      1.19262      .   S
    C13    O473      1.15043      .   S
    C153   O473      1.15043      .   S
    C83    O474      0.62903      .   S
    C185   O474      0.62903      .   S
    C83    O475      0.65474      .   S
    C186   O475      0.65474      .   S
    C93    O476      0.62901      .   S
    C193   O476      0.62901      .   S
    C93    O477      0.65468      .   S
    C194   O477      0.65468      .   S
    C31    O478      0.54482      .   S
    C186   O478      0.54482      .   S
    C34    O479      0.54482      .   S
    C194   O479      0.54482      .   S
    C158   O480      0.63988      .   S
    C48    O480      0.63988      .   S
    C214   O481      0.63990      .   S
    C118   O481      0.63990      .   S
    C84    O482      0.63636      .   S
    C189   O482      0.63636      .   S
    C84    O483      0.74220  1_545   S
    C85    O483      0.74220      .   S
    C74    O484      0.63633      .   S
    C181   O484      0.63633      .   S
    C74    O485      0.74220      .   S
    C75    O485      0.74220      .   S
    C181   O486      1.10324      .   S
    C19    O486      1.10324  1_554   S
    C48    O487      0.63713      .   S
    C159   O487      0.63713      .   S
    C48    O488      0.72782      .   S
    C47    O488      0.72782  1_545   S
    C118   O489      0.63715      .   S
    C215   O489      0.63715      .   S
    C118   O490      0.74196      .   S
    C117   O490      0.74196      .   S
    C140   O491      0.69070      .   S
    C85    O491      0.69070      .   S
    C140   O492      0.67182      .   S
    C86    O492      0.67182      .   S
    C136   O493      0.69070      .   S
    C75    O493      0.69070      .   S
    C136   O494      0.67184      .   S
    C76    O494      0.67184      .   S
    C215   O495      1.09278      .   S
    C19    O495      1.09278  1_554   S
    C125   O496      0.70499      .   S
    C47    O496      0.70499      .   S
    C153   O497      0.69173      .   S
    C117   O497      0.69173      .   S
    C32    O498      0.54288      .   S
    C86    O498      0.54288      .   S
    C29    O499      0.54288      .   S
    C76    O499      0.54288      .   S
    C156   O500      1.24244      .   S
    C0     O500      1.24244      .   S
    C158   O501      1.21060      .   S
    C3     O501      1.21060  1_545   S
    C163   O502      1.23910      .   S
    C15    O502      1.23910      .   S
    C164   O503      1.24238      .   S
    C2     O503      1.24238      .   S
    C166   O504      1.21048      .   S
    C1     O504      1.21048  1_565   S
    C171   O505      1.23879  1_655   S
    C13    O505      1.23879      .   S
    C172   O506      1.24241      .   S
    C4     O506      1.24241      .   S
    C174   O507      1.21064      .   S
    C7     O507      1.21064      .   S
    C179   O508      1.23910      .   S
    C11    O508      1.23910      .   S
    C180   O509      1.24239      .   S
    C6     O509      1.24239      .   S
    C182   O510      1.21058      .   S
    C5     O510      1.21058      .   S
    C187   O511      1.23880  1_455   S
    C9     O511      1.23880      .   S
    C188   O512      1.24243      .   S
    C8     O512      1.24243      .   S
    C190   O513      1.21058      .   S
    C11    O513      1.21058  1_565   S
    C195   O514      1.23909      .   S
    C7     O514      1.23909      .   S
    C196   O515      1.24237      .   S
    C10    O515      1.24237      .   S
    C198   O516      1.21049      .   S
    C9     O516      1.21049  1_545   S
    C203   O517      1.23880  1_455   S
    C5     O517      1.23880      .   S
    C204   O518      1.24241      .   S
    C12    O518      1.24241      .   S
    C206   O519      1.21048      .   S
    C15    O519      1.21048      .   S
    C211   O520      1.23910      .   S
    C3     O520      1.23910      .   S
    C212   O521      1.24237      .   S
    C14    O521      1.24237      .   S
    C214   O522      1.21044      .   S
    C13    O522      1.21044      .   S
    C219   O523      1.23881  1_655   S
    C1     O523      1.23881      .   S
