# CIF file generated by openbabel 2.4.90, see http://openbabel.sf.net
data_I
_chemical_name_common ''
_cell_length_a 14.816
_cell_length_b 14.822
_cell_length_c 14.809
_cell_angle_alpha 109.433
_cell_angle_beta 109.37
_cell_angle_gamma 109.348
_space_group_name_H-M_alt 'P 1'
_space_group_name_Hall 'P 1'
loop_
    _symmetry_equiv_pos_as_xyz
    x,y,z
loop_
    _atom_site_label
    _atom_site_type_symbol
    _atom_site_fract_x
    _atom_site_fract_y
    _atom_site_fract_z
    _atom_site_occupancy
    N0      N    0.61617   0.00052   0.35784   1.000
    N1      N    0.35740   0.61603   0.99973   1.000
    N2      N    0.38489   0.38566   0.74472   1.000
    N3      N    0.64238   0.64196   0.25600   1.000
    N4      N    0.61934   0.37061   0.99027   1.000
    N5      N    0.35785   0.00029   0.61458   1.000
    N6      N    0.38616   0.74469   0.38546   1.000
    N7      N    0.64162   0.25615   0.64308   1.000
    N8      N    0.74203   0.38531   0.38590   1.000
    N9      N    0.00139   0.61529   0.35912   1.000
    N10     N    0.99954   0.35714   0.61584   1.000
    N11     N    0.25414   0.64155   0.64077   1.000
    Zr12    Zr   0.24861   0.50026   0.75023   1.000
    O13     O    0.28028   0.53665   0.83233   1.000
    O14     O    0.29521   0.46435   0.74611   1.000
    O15     O    0.16677   0.44910   0.70436   1.000
    O16     O    0.25263   0.55075   0.71826   1.000
    Zr17    Zr   0.25020   0.75051   0.49918   1.000
    O18     O    0.16835   0.70423   0.44895   1.000
    O19     O    0.28153   0.83266   0.53521   1.000
    O20     O    0.25376   0.71875   0.54982   1.000
    O21     O    0.29679   0.74633   0.46364   1.000
    Zr22    Zr   0.75022   0.24988   0.50158   1.000
    O23     O    0.74558   0.29644   0.46563   1.000
    O24     O    0.83223   0.28102   0.53750   1.000
    O25     O    0.71859   0.25426   0.55223   1.000
    O26     O    0.70443   0.16796   0.45027   1.000
    Zr27    Zr   0.50112   0.75140   0.24932   1.000
    O28     O    0.44982   0.70521   0.16733   1.000
    O29     O    0.55162   0.71943   0.25371   1.000
    O30     O    0.53736   0.83337   0.28087   1.000
    O31     O    0.46528   0.74711   0.29602   1.000
    Zr32    Zr   0.49892   0.24948   0.75103   1.000
    O33     O    0.53643   0.28435   0.83067   1.000
    O34     O    0.46312   0.29596   0.74655   1.000
    O35     O    0.44844   0.16756   0.70452   1.000
    O36     O    0.54988   0.25395   0.71961   1.000
    Zr37    Zr   0.75167   0.50086   0.25321   1.000
    O38     O    0.83373   0.53651   0.28396   1.000
    O39     O    0.70635   0.45302   0.16768   1.000
    O40     O    0.71976   0.55128   0.25629   1.000
    O41     O    0.74639   0.46491   0.29891   1.000
loop_
    _geom_bond_atom_site_label_1
    _geom_bond_atom_site_label_2
    _geom_bond_distance
    _geom_bond_site_symmetry_2
    _ccdc_geom_bond_type
    Zr12   O13       1.00335      .   S
    N1     O13       2.03101      .   S
    Zr12   O14       1.00676      .   S
    N2     O14       2.03848      .   S
    Zr12   O15       1.00417      .   S
    N10    O15       2.03321  1_655   S
    Zr12   O16       1.00640      .   S
    N11    O16       2.03805      .   S
    Zr17   O18       1.00267      .   S
    N9     O18       2.02890      .   S
    Zr17   O19       1.00585      .   S
    N5     O19       2.03632  1_545   S
    Zr17   O20       1.00599      .   S
    N11    O20       2.03657      .   S
    Zr17   O21       1.00238      .   S
    N6     O21       2.02821      .   S
    Zr22   O23       1.00791      .   S
    N8     O23       2.04251      .   S
    Zr22   O24       1.00435      .   S
    N10    O24       2.03264      .   S
    Zr22   O25       1.00371      .   S
    N7     O25       2.03106      .   S
    Zr22   O26       1.00514      .   S
    N0     O26       2.03582      .   S
    Zr27   O28       1.00529      .   S
    N1     O28       2.03610  1_556   S
    Zr27   O29       1.00584      .   S
    N3     O29       2.03638      .   S
    Zr27   O30       1.00319      .   S
    N0     O30       2.03030  1_545   S
    Zr27   O31       1.00737      .   S
    N6     O31       2.04051      .   S
    Zr32   O33       0.96762      .   S
    N4     O33       1.93706      .   S
    Zr32   O34       1.00470      .   S
    N2     O34       2.03376      .   S
    Zr32   O35       1.00412      .   S
    N5     O35       2.03328      .   S
    Zr32   O36       1.00558      .   S
    N7     O36       2.03718      .   S
    Zr37   O38       1.00586      .   S
    N9     O38       2.03763  1_455   S
    Zr37   O39       1.03959      .   S
    N4     O39       2.15199  1_556   S
    Zr37   O40       1.00488      .   S
    N3     O40       2.03533      .   S
    Zr37   O41       0.99769      .   S
    N8     O41       2.01787      .   S
