# CIF file generated by openbabel 2.4.90, see http://openbabel.sf.net
data_I
_chemical_name_common ''
_cell_length_a 10.563
_cell_length_b 11.365
_cell_length_c 16.816
_cell_angle_alpha 98.438
_cell_angle_beta 95.506
_cell_angle_gamma 101.269
_space_group_name_H-M_alt 'P 1'
_space_group_name_Hall 'P 1'
loop_
    _symmetry_equiv_pos_as_xyz
    x,y,z
loop_
    _atom_site_label
    _atom_site_type_symbol
    _atom_site_fract_x
    _atom_site_fract_y
    _atom_site_fract_z
    _atom_site_occupancy
    Ga0     Ga   0.97842   0.75879   0.50725   1.000
    Ga1     Ga   0.03536   0.23482   0.00000   1.000
    Ga2     Ga   0.99921   0.23615   0.49939   1.000
    Ga3     Ga   0.53413   0.73537   0.98075   1.000
    Ga4     Ga   0.51635   0.71959   0.49185   1.000
    Ga5     Ga   0.46258   0.23978   0.01387   1.000
    Ga6     Ga   0.49779   0.23923   0.49747   1.000
    Ga7     Ga   0.74622   0.02481   0.97872   1.000
    Ga8     Ga   0.76067   0.96167   0.51279   1.000
    Ga9     Ga   0.75109   0.45047   0.01840   1.000
    Ga10    Ga   0.73357   0.51483   0.48410   1.000
    Ga11    Ga   0.25146   0.95484   0.02366   1.000
    Ga12    Ga   0.27806   0.95462   0.51149   1.000
    Ga13    Ga   0.24779   0.52059   0.97503   1.000
    Ga14    Ga   0.21977   0.52016   0.48648   1.000
    P15     P    0.75051   0.73685   0.61544   1.000
    P16     P    0.73175   0.70972   0.11772   1.000
    P17     P    0.75661   0.21085   0.61328   1.000
    P18     P    0.73553   0.23360   0.11424   1.000
    P19     P    0.22797   0.74550   0.61708   1.000
    P20     P    0.23611   0.72811   0.11339   1.000
    P21     P    0.25995   0.20843   0.60996   1.000
    P22     P    0.23766   0.21804   0.11927   1.000
    P23     P    0.76516   0.76613   0.88011   1.000
    P24     P    0.74445   0.74051   0.38267   1.000
    P25     P    0.76283   0.24183   0.88283   1.000
    P26     P    0.73985   0.26515   0.38393   1.000
    P27     P    0.26105   0.74673   0.88496   1.000
    P28     P    0.26811   0.72817   0.38075   1.000
    P29     P    0.26127   0.25820   0.87796   1.000
    P30     P    0.23750   0.26676   0.38710   1.000
    H31     H    0.91285   0.79081   0.72948   1.000
    Ga32    Ga   0.96304   0.74046   0.01736   1.000
    H33     H    0.87183   0.77206   0.24063   1.000
    H34     H    0.90407   0.26068   0.73541   1.000
    H35     H    0.88372   0.27174   0.23496   1.000
    H36     H    0.38755   0.79500   0.73266   1.000
    H37     H    0.39062   0.77412   0.23062   1.000
    H38     H    0.41036   0.25404   0.73033   1.000
    H39     H    0.37863   0.27270   0.24216   1.000
    H40     H    0.79681   0.88469   0.73464   1.000
    H41     H    0.75044   0.85913   0.23558   1.000
    H42     H    0.79810   0.36297   0.73115   1.000
    H43     H    0.78112   0.37711   0.23480   1.000
    H44     H    0.26923   0.88543   0.74088   1.000
    H45     H    0.26997   0.86129   0.23917   1.000
    H46     H    0.31043   0.36175   0.72694   1.000
    H47     H    0.27463   0.37590   0.23284   1.000
    H48     H    0.62578   0.70129   0.75722   1.000
    H49     H    0.58402   0.68443   0.26768   1.000
    H50     H    0.61366   0.20319   0.76262   1.000
    H51     H    0.59289   0.21534   0.26140   1.000
    H52     H    0.10560   0.70132   0.76809   1.000
    H53     H    0.10858   0.67862   0.26515   1.000
    H54     H    0.11935   0.20479   0.75549   1.000
    H55     H    0.08734   0.22374   0.26661   1.000
    H56     H    0.74897   0.61624   0.76268   1.000
    H57     H    0.70044   0.59089   0.26427   1.000
    H58     H    0.71685   0.09830   0.76224   1.000
    H59     H    0.69843   0.11276   0.26624   1.000
    H60     H    0.22535   0.61313   0.75926   1.000
    H61     H    0.22746   0.58880   0.25682   1.000
    H62     H    0.22300   0.10114   0.76399   1.000
    H63     H    0.18624   0.11514   0.26940   1.000
    C64     C    0.80821   0.79001   0.72067   1.000
    C65     C    0.76689   0.76589   0.22532   1.000
    C66     C    0.80180   0.26596   0.72136   1.000
    C67     C    0.78191   0.27951   0.22245   1.000
    C68     C    0.28226   0.79163   0.72456   1.000
    C69     C    0.28493   0.76836   0.22175   1.000
    C70     C    0.30936   0.26375   0.71728   1.000
    C71     C    0.27703   0.27869   0.22579   1.000
    C72     C    0.73096   0.70895   0.77265   1.000
    C73     C    0.68868   0.68557   0.27734   1.000
    C74     C    0.71567   0.19581   0.77476   1.000
    C75     C    0.69503   0.20986   0.27577   1.000
    C76     C    0.21118   0.70636   0.77660   1.000
    C77     C    0.21394   0.68240   0.27333   1.000
    C78     C    0.22097   0.19845   0.77137   1.000
    C79     C    0.18808   0.21330   0.27959   1.000
    O80     O    0.83378   0.82509   0.56218   1.000
    O81     O    0.83434   0.78974   0.07684   1.000
    O82     O    0.86202   0.27592   0.56823   1.000
    O83     O    0.81494   0.33417   0.07294   1.000
    O84     O    0.31848   0.82826   0.56940   1.000
    O85     O    0.31215   0.83438   0.07583   1.000
    O86     O    0.36222   0.27930   0.56517   1.000
    O87     O    0.33740   0.29423   0.07407   1.000
    O88     O    0.77340   0.60745   0.59291   1.000
    O89     O    0.74493   0.57562   0.10756   1.000
    O90     O    0.75542   0.06986   0.60490   1.000
    O91     O    0.77286   0.11010   0.08845   1.000
    O92     O    0.23766   0.61173   0.59448   1.000
    O93     O    0.27798   0.60775   0.08482   1.000
    O94     O    0.26109   0.06922   0.59949   1.000
    O95     O    0.24964   0.08319   0.11015   1.000
    O96     O    0.60670   0.74325   0.60056   1.000
    O97     O    0.59408   0.72823   0.09021   1.000
    O98     O    0.61882   0.23265   0.59313   1.000
    O99     O    0.58704   0.22420   0.09814   1.000
    O100    O    0.08446   0.76161   0.60459   1.000
    O101    O    0.08662   0.71413   0.09853   1.000
    O102    O    0.12022   0.22924   0.59353   1.000
    O103    O    0.09877   0.23514   0.09253   1.000
    O104    O    0.66239   0.68592   0.92075   1.000
    O105    O    0.66195   0.65239   0.43626   1.000
    O106    O    0.68347   0.14155   0.92426   1.000
    O107    O    0.63493   0.19931   0.42907   1.000
    O108    O    0.18557   0.64096   0.92321   1.000
    O109    O    0.17766   0.64527   0.42818   1.000
    O110    O    0.16150   0.18172   0.92296   1.000
    O111    O    0.13393   0.19585   0.43111   1.000
    O112    O    0.75028   0.89978   0.88936   1.000
    O113    O    0.71829   0.86895   0.40422   1.000
    O114    O    0.72628   0.36558   0.90864   1.000
    O115    O    0.73977   0.40595   0.39231   1.000
    O116    O    0.22022   0.86750   0.91378   1.000
    O117    O    0.25970   0.86221   0.40351   1.000
    O118    O    0.25065   0.39339   0.88800   1.000
    O119    O    0.23842   0.40640   0.39894   1.000
    O120    O    0.90357   0.75017   0.90832   1.000
    O121    O    0.88923   0.73823   0.39849   1.000
    O122    O    0.91133   0.25081   0.89862   1.000
    O123    O    0.87787   0.24403   0.40409   1.000
    O124    O    0.41049   0.75977   0.89905   1.000
    O125    O    0.41137   0.71122   0.39317   1.000
    O126    O    0.39991   0.23986   0.90421   1.000
    O127    O    0.37681   0.24479   0.40300   1.000
loop_
    _geom_bond_atom_site_label_1
    _geom_bond_atom_site_label_2
    _geom_bond_distance
    _geom_bond_site_symmetry_2
    _ccdc_geom_bond_type
    Ga1    O103      1.63312      .   S
    Ga5    O87       1.88382      .   S
    Ga5    O99       1.89075      .   S
    Ga5    O126      1.89876  1_554   S
    Ga32   O81       1.88579      .   S
    Ga32   O101      1.89396  1_655   S
    Ga32   O120      1.90642  1_554   S
    Ga9    O83       1.90486      .   S
    Ga9    O114      1.92141  1_554   S
    Ga11   O85       1.90855      .   S
    Ga11   O95       1.90708  1_565   S
    Ga11   O116      1.92998  1_554   S
    O83    P18       1.56918      .   S
    O87    P22       1.55809      .   S
    O85    P20       1.56358      .   S
    O81    P16       1.55416      .   S
    O93    P20       1.54330      .   S
    O93    Ga13      1.92822  1_554   S
    O91    P18       1.54405      .   S
    O91    Ga7       1.92163  1_554   S
    O97    P16       1.54665      .   S
    O97    Ga3       1.90682  1_554   S
    O103   P22       1.55007      .   S
    O99    P18       1.54580      .   S
    O101   P20       1.54782      .   S
    O89    P16       1.54347      .   S
    O95    P22       1.54883      .   S
    P20    C69       1.81069      .   S
    P18    C67       1.80935      .   S
    P16    C65       1.80515      .   S
    P22    C71       1.79987      .   S
    C69    H37       1.09975      .   S
    C69    H45       1.09985      .   S
    C69    C77       1.53501      .   S
    C67    H43       1.10000      .   S
    C67    H35       1.09898      .   S
    C67    C75       1.53474      .   S
    C65    H41       1.09873      .   S
    C65    H33       1.09974      .   S
    C65    C73       1.53593      .   S
    C71    H47       1.09924      .   S
    C71    H39       1.09975      .   S
    C71    C79       1.53007      .   S
    H61    C77       1.09967      .   S
    H51    C75       1.09862      .   S
    H57    C73       1.09977      .   S
    H53    C77       1.09981      .   S
    H59    C75       1.09966      .   S
    H55    C79       1.09837      .   S
    H49    C73       1.09910      .   S
    H63    C79       1.09952      .   S
    C77    P28       1.80831      .   S
    C75    P26       1.81937      .   S
    C73    P24       1.79042      .   S
    C79    P30       1.81189      .   S
    P28    O125      1.56071      .   S
    P28    O117      1.53737      .   S
    P28    O109      1.56581      .   S
    P24    O121      1.53293      .   S
    P24    O113      1.53625      .   S
    P24    O105      1.62750      .   S
    P26    O115      1.58583      .   S
    P26    O123      1.53746      .   S
    P26    O107      1.53891      .   S
    P30    O119      1.56809      .   S
    P30    O127      1.54500      .   S
    P30    O111      1.54260      .   S
    O115   Ga10      1.84619      .   S
    O125   Ga4       1.88458      .   S
    O119   Ga14      1.86388      .   S
    O127   Ga6       1.95755      .   S
    O117   Ga12      1.93156      .   S
    O123   Ga2       1.97789      .   S
    O113   Ga8       1.93350      .   S
    O111   Ga2       1.99181  1_455   S
    Ga10   O88       1.93561      .   S
    Ga14   O92       1.92858      .   S
    Ga6    O86       1.99237      .   S
    Ga6    O98       1.97634      .   S
    Ga2    O102      1.95785  1_655   S
    Ga0    O100      1.88517  1_655   S
    Ga12   O94       1.86950  1_565   S
    Ga8    O90       1.84342  1_565   S
    O80    P15       1.62836      .   S
    O86    P21       1.54189      .   S
    O82    P17       1.53788      .   S
    O84    P19       1.56794      .   S
    O88    P15       1.53558      .   S
    O98    P17       1.53804      .   S
    O102   P21       1.54545      .   S
    O92    P19       1.53780      .   S
    O94    P21       1.56855      .   S
    O96    P15       1.53327      .   S
    O100   P19       1.56012      .   S
    O90    P17       1.58526      .   S
    P21    C70       1.81178      .   S
    P17    C66       1.81823      .   S
    P15    C64       1.78976      .   S
    P19    C68       1.81001      .   S
    C70    H46       1.09942      .   S
    C70    H38       1.09848      .   S
    C70    C78       1.52974      .   S
    C64    H31       1.09905      .   S
    C64    H40       1.09974      .   S
    C64    C72       1.53561      .   S
    C66    H42       1.09959      .   S
    C66    H34       1.09865      .   S
    C66    C74       1.53400      .   S
    C68    H36       1.09987      .   S
    C68    H44       1.09972      .   S
    C68    C76       1.53597      .   S
    H54    C78       1.09982      .   S
    H48    C72       1.09979      .   S
    H60    C76       1.09991      .   S
    H58    C74       1.09995      .   S
    H50    C74       1.09906      .   S
    H56    C72       1.09861      .   S
    H62    C78       1.09931      .   S
    H52    C76       1.09974      .   S
    C78    P29       1.79958      .   S
    C72    P23       1.80456      .   S
    C74    P25       1.80815      .   S
    C76    P27       1.81225      .   S
    P29    O118      1.54813      .   S
    P29    O126      1.55077      .   S
    P29    O110      1.55779      .   S
    P23    O112      1.54422      .   S
    P23    O120      1.54642      .   S
    P23    O104      1.55393      .   S
    P25    O122      1.54629      .   S
    P25    O114      1.54295      .   S
    P25    O106      1.56809      .   S
    P27    O124      1.54802      .   S
    P27    O116      1.54308      .   S
    P27    O108      1.56373      .   S
    O118   Ga13      1.90720      .   S
    O112   Ga7       1.92050  1_565   S
    O124   Ga3       1.89177      .   S
    O104   Ga3       1.88755      .   S
    O108   Ga13      1.91158      .   S
    O106   Ga7       1.90315      .   S
    O80    Ga0       2.06674      .   S
    O80    Ga8       2.10223      .   S
    O82    Ga2       2.01713      .   S
    O84    Ga12      1.93987      .   S
    O89    Ga9       1.92470      .   S
    O96    Ga4       1.93536      .   S
    O105   Ga4       2.08514      .   S
    O105   Ga10      2.09248      .   S
    O107   Ga6       2.01257      .   S
    O109   Ga14      1.93743      .   S
    O110   Ga1       2.05761  1_556   S
    O121   Ga0       1.93519      .   S
    O122   Ga1       2.10021  1_656   S
