# CIF file generated by openbabel 2.4.90, see http://openbabel.sf.net
data_I
_chemical_name_common ''
_cell_length_a 10.563
_cell_length_b 11.365
_cell_length_c 16.816
_cell_angle_alpha 98.438
_cell_angle_beta 95.506
_cell_angle_gamma 101.269
_space_group_name_H-M_alt 'P 1'
_space_group_name_Hall 'P 1'
loop_
    _symmetry_equiv_pos_as_xyz
    x,y,z
loop_
    _atom_site_label
    _atom_site_type_symbol
    _atom_site_fract_x
    _atom_site_fract_y
    _atom_site_fract_z
    _atom_site_occupancy
    Ga0     Ga   0.97842   0.75879   0.50725   1.000
    Ga1     Ga   0.03536   0.23482   0.00000   1.000
    Ga2     Ga   0.99921   0.23615   0.49939   1.000
    Ga3     Ga   0.53413   0.73537   0.98075   1.000
    Ga4     Ga   0.51635   0.71959   0.49185   1.000
    Ga5     Ga   0.46258   0.23978   0.01387   1.000
    Ga6     Ga   0.49779   0.23923   0.49747   1.000
    Ga7     Ga   0.74622   0.02481   0.97872   1.000
    Ga8     Ga   0.76067   0.96167   0.51279   1.000
    Ga9     Ga   0.75109   0.45047   0.01840   1.000
    Ga10    Ga   0.73357   0.51483   0.48410   1.000
    Ga11    Ga   0.25146   0.95484   0.02366   1.000
    Ga12    Ga   0.27806   0.95462   0.51149   1.000
    Ga13    Ga   0.24779   0.52059   0.97503   1.000
    Ga14    Ga   0.21977   0.52016   0.48648   1.000
    Ga15    Ga   0.96304   0.74046   0.01736   1.000
