# CIF file generated by openbabel 2.4.90, see http://openbabel.sf.net
data_I
_chemical_name_common ''
_cell_length_a 10.563
_cell_length_b 11.365
_cell_length_c 16.816
_cell_angle_alpha 98.438
_cell_angle_beta 95.506
_cell_angle_gamma 101.269
_space_group_name_H-M_alt 'P 1'
_space_group_name_Hall 'P 1'
loop_
    _symmetry_equiv_pos_as_xyz
    x,y,z
loop_
    _atom_site_label
    _atom_site_type_symbol
    _atom_site_fract_x
    _atom_site_fract_y
    _atom_site_fract_z
    _atom_site_occupancy
    Zr0     Zr   0.96304   0.74046   0.01736   1.000
    Zr1     Zr   0.97842   0.75879   0.50725   1.000
    Zr2     Zr   0.03536   0.23482   0.00000   1.000
    Zr3     Zr   0.99921   0.23615   0.49939   1.000
    Zr4     Zr   0.53413   0.73537   0.98075   1.000
    Zr5     Zr   0.51635   0.71959   0.49185   1.000
    Zr6     Zr   0.46258   0.23978   0.01387   1.000
    Zr7     Zr   0.49779   0.23923   0.49747   1.000
    Zr8     Zr   0.74622   0.02481   0.97872   1.000
    Zr9     Zr   0.76067   0.96167   0.51279   1.000
    Zr10    Zr   0.75109   0.45047   0.01840   1.000
    Zr11    Zr   0.73357   0.51483   0.48410   1.000
    Zr12    Zr   0.25146   0.95484   0.02366   1.000
    Zr13    Zr   0.27806   0.95462   0.51149   1.000
    Zr14    Zr   0.24779   0.52059   0.97503   1.000
    Zr15    Zr   0.21977   0.52016   0.48648   1.000
    N16     N    0.75907   0.22685   0.74867   1.000
    O17     O    0.84484   0.24144   0.64124   1.000
    O18     O    0.75856   0.12131   0.65376   1.000
    O19     O    0.74888   0.31744   0.85610   1.000
    O20     O    0.86621   0.23483   0.84899   1.000
    O21     O    0.73696   0.15501   0.85008   1.000
    O22     O    0.65869   0.23139   0.64699   1.000
    N23     N    0.24479   0.74678   0.75061   1.000
    O24     O    0.27153   0.81911   0.64553   1.000
    O25     O    0.35855   0.74718   0.84526   1.000
    O26     O    0.13812   0.75349   0.65327   1.000
    O27     O    0.23073   0.66378   0.84987   1.000
    O28     O    0.23675   0.65636   0.64555   1.000
    O29     O    0.24032   0.82897   0.85967   1.000
    N30     N    0.73828   0.24877   0.24849   1.000
    O31     O    0.76065   0.32055   0.14708   1.000
    O32     O    0.63154   0.24038   0.15225   1.000
    O33     O    0.73747   0.35458   0.34335   1.000
    O34     O    0.74891   0.15811   0.14103   1.000
    O35     O    0.83841   0.24443   0.35011   1.000
    O36     O    0.65232   0.23402   0.35588   1.000
    N37     N    0.23586   0.24456   0.25233   1.000
    O38     O    0.15122   0.23028   0.35879   1.000
    O39     O    0.23248   0.35392   0.34752   1.000
    O40     O    0.31792   0.25578   0.14815   1.000
    O41     O    0.33658   0.24329   0.35128   1.000
    O42     O    0.15146   0.23977   0.14930   1.000
    O43     O    0.24321   0.13179   0.15961   1.000
    N44     N    0.73438   0.72581   0.25177   1.000
    O45     O    0.73693   0.82056   0.35514   1.000
    O46     O    0.83410   0.73716   0.35232   1.000
    O47     O    0.81654   0.74546   0.14944   1.000
    O48     O    0.64924   0.72881   0.14362   1.000
    O49     O    0.66177   0.70590   0.35791   1.000
    O50     O    0.71607   0.65471   0.35598   1.000
    O51     O    0.74120   0.61943   0.15738   1.000
    N52     N    0.25180   0.72749   0.24750   1.000
    O53     O    0.22526   0.65510   0.35242   1.000
    O54     O    0.13832   0.72739   0.15272   1.000
    O55     O    0.25734   0.64583   0.13871   1.000
    O56     O    0.35783   0.72144   0.34500   1.000
    O57     O    0.26034   0.81795   0.35250   1.000
    O58     O    0.26680   0.81105   0.14862   1.000
    N59     N    0.26216   0.23166   0.74476   1.000
    O60     O    0.25569   0.34433   0.83814   1.000
    O61     O    0.34670   0.23574   0.85190   1.000
    O62     O    0.18030   0.21997   0.85312   1.000
    O63     O    0.26587   0.12179   0.65013   1.000
    O64     O    0.34608   0.24546   0.63804   1.000
    O65     O    0.16094   0.23218   0.64561   1.000
    N66     N    0.76210   0.75047   0.74621   1.000
    O67     O    0.84770   0.74790   0.85453   1.000
    O68     O    0.68018   0.73056   0.84848   1.000
    O69     O    0.75779   0.65581   0.64236   1.000
    O70     O    0.75517   0.85638   0.84013   1.000
    O71     O    0.66181   0.74095   0.64621   1.000
    O72     O    0.83410   0.77121   0.64046   1.000
    O73     O    0.77966   0.82193   0.64185   1.000
loop_
    _geom_bond_atom_site_label_1
    _geom_bond_atom_site_label_2
    _geom_bond_distance
    _geom_bond_site_symmetry_2
    _ccdc_geom_bond_type
    N16    O17       2.11077      .   S
    Zr3    O17       3.01581      .   S
    N16    O18       1.84939      .   S
    Zr9    O18       2.77043  1_565   S
    N16    O19       1.96708      .   S
    Zr10   O19       2.91515  1_554   S
    N16    O20       1.91924      .   S
    Zr2    O20       2.96147  1_454   S
    N16    O21       2.00984      .   S
    Zr8    O21       2.79892      .   S
    N16    O22       1.93658      .   S
    Zr7    O22       2.91941      .   S
    N23    O24       2.07596      .   S
    Zr13   O24       2.90936      .   S
    N23    O25       1.89887      .   S
    Zr4    O25       2.83282      .   S
    N23    O26       1.91609      .   S
    Zr1    O26       2.85771  1_655   S
    N23    O27       2.03775      .   S
    Zr14   O27       2.85616      .   S
    N23    O28       1.89448      .   S
    Zr15   O28       2.85785      .   S
    N23    O29       1.94139      .   S
    Zr12   O29       2.89466  1_554   S
    N30    O31       2.00985      .   S
    Zr10   O31       2.79767      .   S
    N30    O32       1.86060      .   S
    Zr6    O32       2.79169      .   S
    N30    O33       1.85319      .   S
    Zr11   O33       2.77558      .   S
    N30    O34       1.96900      .   S
    Zr8    O34       2.91568  1_556   S
    N30    O35       1.93391      .   S
    Zr3    O35       2.91703      .   S
    N30    O36       2.11137      .   S
    Zr7    O36       3.01316      .   S
    N37    O38       2.08963      .   S
    Zr3    O38       2.98279  1_655   S
    N37    O39       1.88490      .   S
    Zr15   O39       2.81279      .   S
    N37    O40       2.03724      .   S
    Zr6    O40       2.84893      .   S
    N37    O41       1.89061      .   S
    Zr7    O41       2.86454      .   S
    N37    O42       1.85915      .   S
    Zr2    O42       2.67410      .   S
    N37    O43       1.88546      .   S
    Zr12   O43       2.83479  1_565   S
    N44    O45       1.90054      .   S
    Zr9    O45       2.85143      .   S
    N44    O46       1.87785      .   S
    Zr1    O46       2.84171      .   S
    N44    O47       2.02186      .   S
    Zr0    O47       2.82623      .   S
    N44    O48       1.95794      .   S
    Zr4    O48       2.90555  1_556   S
    N44    O49       2.03438      .   S
    Zr5    O49       2.84792      .   S
    N44    O50       2.04461      .   S
    Zr11   O50       2.87180      .   S
    N44    O51       1.86532      .   S
    Zr10   O51       2.82282      .   S
    N52    O53       2.07334      .   S
    Zr15   O53       2.90569      .   S
    N52    O54       1.89984      .   S
    Zr0    O54       2.83353  1_655   S
    N52    O55       1.93776      .   S
    Zr14   O55       2.89015  1_556   S
    N52    O56       1.91263      .   S
    Zr5    O56       2.85261      .   S
    N52    O57       1.89290      .   S
    Zr13   O57       2.85780      .   S
    N52    O58       2.03638      .   S
    Zr12   O58       2.85637      .   S
    N59    O60       1.89062      .   S
    Zr14   O60       2.84041      .   S
    N59    O61       1.92253      .   S
    Zr6    O61       2.86711  1_554   S
    N59    O62       2.10101      .   S
    Zr2    O62       3.02936  1_554   S
    N59    O63       1.88182      .   S
    Zr13   O63       2.81333  1_565   S
    N59    O64       2.08920      .   S
    Zr7    O64       2.98042      .   S
    N59    O65       1.89381      .   S
    Zr3    O65       2.86755  1_655   S
    N66    O67       1.96115      .   S
    Zr0    O67       2.90817  1_554   S
    N66    O68       2.02008      .   S
    Zr4    O68       2.82591      .   S
    N66    O69       1.90363      .   S
    Zr11   O69       2.85877      .   S
    N66    O70       1.85656      .   S
    Zr8    O70       2.81213  1_545   S
    N66    O71       1.87665      .   S
    Zr5    O71       2.83928      .   S
    N66    O72       2.02699      .   S
    Zr1    O72       2.82991      .   S
    N66    O73       2.04834      .   S
    Zr9    O73       2.88531      .   S
