# CIF file generated by openbabel 2.4.90, see http://openbabel.sf.net
data_I
_chemical_name_common ''
_cell_length_a 14.172
_cell_length_b 15
_cell_length_c 15.368
_cell_angle_alpha 90.097
_cell_angle_beta 90.015
_cell_angle_gamma 90.035
_space_group_name_H-M_alt 'P 1'
_space_group_name_Hall 'P 1'
loop_
    _symmetry_equiv_pos_as_xyz
    x,y,z
loop_
    _atom_site_label
    _atom_site_type_symbol
    _atom_site_fract_x
    _atom_site_fract_y
    _atom_site_fract_z
    _atom_site_occupancy
    Zn0     Zn   0.37419   0.70706   0.56646   1.000
    Zn1     Zn   0.11125   0.80460   0.46219   1.000
    Zn2     Zn   0.12725   0.20691   0.43293   1.000
    Zn3     Zn   0.61280   0.19560   0.03946   1.000
    Zn4     Zn   0.62590   0.79299   0.06654   1.000
    Zn5     Zn   0.88922   0.69564   0.96035   1.000
    Zn6     Zn   0.87270   0.29296   0.93301   1.000
    Zn7     Zn   0.61260   0.69558   0.46007   1.000
    Zn8     Zn   0.62586   0.29297   0.43343   1.000
    Zn9     Zn   0.88924   0.19556   0.53758   1.000
    Zn10    Zn   0.87303   0.79311   0.56671   1.000
    Zn11    Zn   0.38728   0.80439   0.96033   1.000
    Zn12    Zn   0.37418   0.20703   0.93336   1.000
    Zn13    Zn   0.11076   0.30446   0.03775   1.000
    Zn14    Zn   0.12729   0.70703   0.06680   1.000
    Zn15    Zn   0.00006   0.49997   0.49999   1.000
    Zn16    Zn   0.50099   0.99987   0.49982   1.000
    Zn17    Zn   0.00007   0.99993   0.99999   1.000
    Zn18    Zn   0.50052   0.49995   0.99998   1.000
    H19     H    0.70493   0.18302   0.86599   1.000
    H20     H    0.79659   0.68355   0.13355   1.000
    H21     H    0.29526   0.31440   0.36622   1.000
    H22     H    0.20548   0.81468   0.63353   1.000
    Zn23    Zn   0.38742   0.30448   0.53981   1.000
    H24     H    0.29533   0.81695   0.13382   1.000
    H25     H    0.20376   0.31658   0.86634   1.000
    H26     H    0.70482   0.68560   0.63358   1.000
    H27     H    0.79627   0.18568   0.36644   1.000
    C28     C    0.57336   0.19326   0.83687   1.000
    C29     C    0.57838   0.24851   0.61692   1.000
    C30     C    0.17603   0.39502   0.46467   1.000
    C31     C    0.16613   0.61815   0.49144   1.000
    C32     C    0.92822   0.69341   0.16312   1.000
    C33     C    0.92267   0.74843   0.38355   1.000
    C34     C    0.32404   0.89521   0.53485   1.000
    C35     C    0.33400   0.11867   0.50736   1.000
    C36     C    0.42676   0.30528   0.33711   1.000
    C37     C    0.42166   0.25117   0.11729   1.000
    C38     C    0.82418   0.10466   0.96455   1.000
    C39     C    0.83412   0.88149   0.99135   1.000
    C40     C    0.07409   0.80674   0.66320   1.000
    C41     C    0.07982   0.75122   0.88221   1.000
    C42     C    0.67693   0.60508   0.03524   1.000
    C43     C    0.66696   0.38149   0.00752   1.000
    C44     C    0.42685   0.80669   0.16296   1.000
    C45     C    0.42171   0.75133   0.38256   1.000
    C46     C    0.82419   0.60501   0.53535   1.000
    C47     C    0.83396   0.38186   0.50859   1.000
    C48     C    0.07205   0.30665   0.83666   1.000
    C49     C    0.07823   0.25158   0.61665   1.000
    O50     O    0.04675   0.21552   0.54346   1.000
    O51     O    0.71240   0.17632   0.43206   1.000
    O52     O    0.58838   0.09372   0.46295   1.000
    O53     O    0.58691   0.90329   0.46035   1.000
    C54     C    0.67705   0.10499   0.46435   1.000
    C55     C    0.66700   0.88146   0.49147   1.000
    C56     C    0.57332   0.69479   0.66271   1.000
    C57     C    0.57857   0.74887   0.88246   1.000
    C58     C    0.17616   0.89526   0.03523   1.000
    C59     C    0.16610   0.11836   0.00837   1.000
    C60     C    0.92781   0.19425   0.33652   1.000
    C61     C    0.92068   0.24886   0.11739   1.000
    C62     C    0.32356   0.39504   0.96457   1.000
    C63     C    0.33365   0.61854   0.99255   1.000
    O64     O    0.54732   0.16755   0.91091   1.000
    O65     O    0.66258   0.19917   0.81449   1.000
    O66     O    0.65855   0.21835   0.62705   1.000
    O67     O    0.54668   0.28493   0.54420   1.000
    O68     O    0.21179   0.32392   0.43203   1.000
    O69     O    0.08731   0.40591   0.46313   1.000
    O70     O    0.08666   0.59526   0.45950   1.000
    O71     O    0.18915   0.69919   0.50387   1.000
    O72     O    0.95456   0.66782   0.08903   1.000
    O73     O    0.83890   0.69919   0.18528   1.000
    O74     O    0.84239   0.71851   0.37327   1.000
    O75     O    0.95439   0.78446   0.45677   1.000
    O76     O    0.28830   0.82394   0.56699   1.000
    O77     O    0.41273   0.90651   0.53696   1.000
    O78     O    0.41471   0.09711   0.53722   1.000
    O79     O    0.30927   0.19956   0.49681   1.000
    O80     O    0.45259   0.33249   0.41078   1.000
    O81     O    0.33758   0.29721   0.31505   1.000
    O82     O    0.34160   0.28140   0.12807   1.000
    O83     O    0.45313   0.21514   0.04421   1.000
    O84     O    0.78835   0.17559   0.93181   1.000
    O85     O    0.91292   0.09391   0.96312   1.000
    O86     O    0.91370   0.90408   0.95957   1.000
    O87     O    0.81093   0.80048   0.00344   1.000
    O88     O    0.04844   0.83576   0.59024   1.000
    O89     O    0.16328   0.79731   0.68470   1.000
    O90     O    0.15991   0.78138   0.87111   1.000
    O91     O    0.04859   0.71530   0.95535   1.000
    O92     O    0.71244   0.67634   0.06779   1.000
    O93     O    0.58827   0.59372   0.03698   1.000
    O94     O    0.58648   0.40316   0.03787   1.000
    O95     O    0.69127   0.30056   0.99645   1.000
    O96     O    0.45284   0.83247   0.08894   1.000
    O97     O    0.33763   0.80082   0.18536   1.000
    O98     O    0.34157   0.78131   0.37182   1.000
    O99     O    0.45324   0.71523   0.45553   1.000
    O100    O    0.78855   0.67618   0.56799   1.000
    O101    O    0.91289   0.59404   0.53692   1.000
    O102    O    0.91346   0.40470   0.54050   1.000
    O103    O    0.81090   0.30082   0.49619   1.000
    O104    O    0.04553   0.33232   0.91071   1.000
    O105    O    0.16138   0.30083   0.81468   1.000
    O106    O    0.15844   0.28156   0.62733   1.000
    O107    O    0.69094   0.80054   0.50321   1.000
    O108    O    0.54745   0.66766   0.58901   1.000
    O109    O    0.66251   0.70274   0.68478   1.000
    O110    O    0.65863   0.71872   0.87145   1.000
    O111    O    0.54713   0.78482   0.95560   1.000
    O112    O    0.21209   0.82430   0.06780   1.000
    O113    O    0.08742   0.90603   0.03682   1.000
    O114    O    0.08658   0.09574   0.04025   1.000
    O115    O    0.18921   0.19936   0.99606   1.000
    O116    O    0.95414   0.16645   0.40979   1.000
    O117    O    0.83852   0.20272   0.31519   1.000
    O118    O    0.84069   0.21860   0.12883   1.000
    O119    O    0.95146   0.28480   0.04412   1.000
    O120    O    0.28795   0.32379   0.93195   1.000
    O121    O    0.41223   0.40632   0.96299   1.000
    O122    O    0.41432   0.59694   0.96261   1.000
    O123    O    0.30908   0.69945   0.00340   1.000
    Ts124   Ts   0.35709   0.66440   0.56174   1.000
    Ts125   Ts   0.38620   0.71377   0.60965   1.000
    Ts126   Ts   0.10319   0.79286   0.42027   1.000
    Ts127   Ts   0.13106   0.84644   0.46296   1.000
    Ts128   Ts   0.14401   0.16423   0.43761   1.000
    Ts129   Ts   0.11505   0.21367   0.38950   1.000
    Ts130   Ts   0.60407   0.20736   0.08104   1.000
    Ts131   Ts   0.63218   0.15365   0.03801   1.000
    Ts132   Ts   0.64310   0.83563   0.06181   1.000
    Ts133   Ts   0.61384   0.78637   0.10969   1.000
    Ts134   Ts   0.89773   0.70727   0.91872   1.000
    Ts135   Ts   0.86956   0.65379   0.96177   1.000
    Ts136   Ts   0.85619   0.33574   0.93761   1.000
    Ts137   Ts   0.88494   0.28628   0.88964   1.000
    Ts138   Ts   0.60389   0.70730   0.41849   1.000
    Ts139   Ts   0.63201   0.65370   0.46160   1.000
    Ts140   Ts   0.61385   0.28624   0.39025   1.000
    Ts141   Ts   0.64299   0.33565   0.43819   1.000
    Ts142   Ts   0.89733   0.20723   0.57949   1.000
    Ts143   Ts   0.86968   0.15366   0.53648   1.000
    Ts144   Ts   0.88566   0.78655   0.60987   1.000
    Ts145   Ts   0.85650   0.83580   0.56183   1.000
    Ts146   Ts   0.39604   0.79259   0.91879   1.000
    Ts147   Ts   0.36798   0.84634   0.96177   1.000
    Ts148   Ts   0.38630   0.21360   0.89017   1.000
    Ts149   Ts   0.35704   0.16437   0.93805   1.000
    Ts150   Ts   0.10252   0.29288   0.07957   1.000
    Ts151   Ts   0.13051   0.34633   0.03667   1.000
    Ts152   Ts   0.11514   0.71372   0.11015   1.000
    Ts153   Ts   0.14390   0.66428   0.06208   1.000
    Ts154   Ts   0.39620   0.29267   0.58135   1.000
    Ts155   Ts   0.36807   0.34637   0.53832   1.000
    Og156   Og   0.54981   0.20213   0.81586   1.000
    Og157   Og   0.55372   0.24770   0.64004   1.000
    Og158   Og   0.19825   0.41632   0.47791   1.000
    Og159   Og   0.19031   0.59601   0.49945   1.000
    Og160   Og   0.95215   0.70229   0.18426   1.000
    Og161   Og   0.94845   0.74769   0.36044   1.000
    Og162   Og   0.30187   0.91647   0.52158   1.000
    Og163   Og   0.30995   0.09635   0.49943   1.000
    Og164   Og   0.45037   0.29655   0.31609   1.000
    Og165   Og   0.44640   0.25186   0.14032   1.000
    Og166   Og   0.80199   0.08338   0.97636   1.000
    Og167   Og   0.80998   0.90369   0.99941   1.000
    Og168   Og   0.05048   0.79777   0.68409   1.000
    Og169   Og   0.05499   0.75192   0.85924   1.000
    Og170   Og   0.69910   0.58381   0.02193   1.000
    Og171   Og   0.69099   0.40384   0.99959   1.000
    Og172   Og   0.45042   0.79778   0.18395   1.000
    Og173   Og   0.44643   0.75212   0.35952   1.000
    Og174   Og   0.80195   0.58371   0.52212   1.000
    Og175   Og   0.80980   0.40402   0.50058   1.000
    Og176   Og   0.04860   0.29776   0.81555   1.000
    Og177   Og   0.05346   0.25231   0.63966   1.000
    Og178   Og   0.69927   0.08368   0.47747   1.000
    Og179   Og   0.69108   0.90377   0.49941   1.000
    Og180   Og   0.54972   0.70350   0.68374   1.000
    Og181   Og   0.55381   0.74817   0.85946   1.000
    Og182   Og   0.19834   0.91655   0.02199   1.000
    Og183   Og   0.19025   0.09618   0.00034   1.000
    Og184   Og   0.95188   0.20307   0.31546   1.000
    Og185   Og   0.94712   0.24822   0.14022   1.000
    Og186   Og   0.30137   0.41631   0.97638   1.000
    Og187   Og   0.30957   0.59621   0.00040   1.000
loop_
    _geom_bond_atom_site_label_1
    _geom_bond_atom_site_label_2
    _geom_bond_distance
    _geom_bond_site_symmetry_2
    _ccdc_geom_bond_type
    O123   Zn11      2.03619  1_554   S
    O123   C63       1.27350  1_554   S
    O87    Zn5       2.03504  1_554   S
    O87    C39       1.27264  1_554   S
    C43    O94       1.27437      .   S
    C43    O95       1.27338  1_554   S
    C59    O114      1.27499      .   S
    C59    O115      1.27265  1_554   S
    C58    O113      1.26827      .   S
    C58    O112      1.28259      .   S
    C42    O93       1.26814      .   S
    C42    O92       1.28205      .   S
    O113   Zn17      1.95984  1_554   S
    O93    Zn18      1.96035  1_554   S
    Zn13   O104      2.20067  1_554   S
    Zn13   O115      2.03243  1_554   S
    O94    Zn18      1.98387  1_554   S
    Zn3    O64       2.22192  1_554   S
    Zn3    O95       2.03812  1_554   S
    O114   Zn17      1.98633  1_544   S
    O119   C61       1.32324      .   S
    O119   Zn6       2.04359  1_554   S
    O83    C37       1.32323      .   S
    O83    Zn12      2.04135  1_554   S
    Zn4    O92       2.13747      .   S
    Zn4    O111      2.04111  1_554   S
    Zn14   O112      2.12984      .   S
    Zn14   O91       2.04766  1_554   S
    O96    C44       1.25727      .   S
    O96    Zn11      2.22327  1_554   S
    O72    C32       1.25783      .   S
    O72    Zn5       2.22375  1_554   S
    C37    O82       1.23319      .   S
    C61    O118      1.23359      .   S
    H20    O73       1.02247      .   S
    H24    O97       1.02266      .   S
    C44    O97       1.31340      .   S
    C32    O73       1.31384      .   S
    O81    C36       1.31384      .   S
    O81    H21       1.02203      .   S
    O117   C60       1.31348      .   S
    O117   H27       1.02208      .   S
    C60    O116      1.25792      .   S
    C36    O80       1.25717      .   S
    O98    C45       1.23304      .   S
    O74    C33       1.23276      .   S
    C45    O99       1.32378      .   S
    C33    O75       1.32572      .   S
    O116   Zn9       2.21187      .   S
    O80    Zn23      2.22825      .   S
    O68    Zn2       2.12456      .   S
    O68    C30       1.28246      .   S
    O51    Zn8       2.13760      .   S
    O51    C54       1.28190      .   S
    Zn2    O50       2.05034      .   S
    Zn8    O67       2.04278      .   S
    O99    Zn0       2.04408      .   S
    O75    Zn10      2.04975      .   S
    O70    C31       1.27508      .   S
    O70    Zn15      1.98431      .   S
    Zn7    O107      2.03593      .   S
    Zn7    O108      2.22649      .   S
    O53    C55       1.27475      .   S
    O53    Zn16      1.98726      .   S
    Zn1    O71       2.03329      .   S
    Zn1    O88       2.20956      .   S
    O52    C54       1.26813      .   S
    O52    Zn16      1.95897  1_545   S
    O69    C30       1.26823      .   S
    O69    Zn15      1.95964      .   S
    C31    O71       1.27255      .   S
    C55    O107      1.27355      .   S
    O103   C47       1.27261      .   S
    O103   Zn9       2.03359      .   S
    O79    C35       1.27370      .   S
    O79    Zn23      2.03327      .   S
    Zn16   O77       1.96281      .   S
    Zn16   O78       1.98804  1_565   S
    Zn15   O101      1.95936  1_455   S
    Zn15   O102      1.98435  1_455   S
    C35    O78       1.27440      .   S
    C47    O102      1.27503      .   S
    C34    O77       1.26857      .   S
    C34    O76       1.28252      .   S
    C46    O101      1.26804      .   S
    C46    O100      1.28269      .   S
    O50    C49       1.32445      .   S
    O67    C29       1.32344      .   S
    Zn0    O76       2.13493      .   S
    Zn10   O100      2.12326      .   S
    O108   C56       1.25733      .   S
    O88    C40       1.25706      .   S
    C49    O106      1.23306      .   S
    C29    O66       1.23303      .   S
    H22    O89       1.02219      .   S
    H26    O109      1.02204      .   S
    C56    O109      1.31390      .   S
    C40    O89       1.31418      .   S
    O65    C28       1.31339      .   S
    O65    H19       1.02270      .   S
    O105   C48       1.31325      .   S
    O105   H25       1.02275      .   S
    C48    O104      1.25841      .   S
    C28    O64       1.25734      .   S
    O90    C41       1.23357      .   S
    O110   C57       1.23326      .   S
    C41    O91       1.32339      .   S
    C57    O111      1.32330      .   S
    O84    Zn6       2.12750      .   S
    O84    C38       1.28264      .   S
    O120   Zn12      2.13634      .   S
    O120   C62       1.28278      .   S
    O86    C39       1.27506      .   S
    O86    Zn17      1.98647  1_655   S
    O122   C63       1.27444      .   S
    O122   Zn18      1.98578      .   S
    O121   C62       1.26809      .   S
    O121   Zn18      1.96368      .   S
    O85    C38       1.26816      .   S
    O85    Zn17      1.95918  1_645   S
    O67    Zn23      2.27717      .   S
    O75    Zn1       2.24471  1_655   S
    O83    Zn3       2.28312      .   S
    O91    Zn5       2.27887  1_455   S
    O99    Zn7       2.27884      .   S
    O50    Zn9       2.25383  1_455   S
    O111   Zn11      2.28568      .   S
    O119   Zn13      2.27877  1_655   S
    Zn0    Ts124     0.68786      .   S
    Zn0    Ts125     0.69238      .   S
    Zn1    Ts126     0.67720      .   S
    Zn1    Ts127     0.68754      .   S
    Zn2    Ts128     0.68685      .   S
    Zn2    Ts129     0.69698      .   S
    Zn3    Ts130     0.67416      .   S
    Zn3    Ts131     0.68700      .   S
    Zn4    Ts132     0.68836      .   S
    Zn4    Ts133     0.69212      .   S
    Zn5    Ts134     0.67417      .   S
    Zn5    Ts135     0.68719      .   S
    Zn6    Ts136     0.68674      .   S
    Zn6    Ts137     0.69585      .   S
    Zn7    Ts138     0.67436      .   S
    Zn7    Ts139     0.68631      .   S
    Zn8    Ts140     0.69238      .   S
    Zn8    Ts141     0.68827      .   S
    Zn9    Ts142     0.67688      .   S
    Zn9    Ts143     0.68696      .   S
    Zn10   Ts144     0.69424      .   S
    Zn10   Ts145     0.68623      .   S
    Zn11   Ts146     0.67381      .   S
    Zn11   Ts147     0.68653      .   S
    Zn12   Ts148     0.69276      .   S
    Zn12   Ts149     0.68819      .   S
    Zn13   Ts150     0.67617      .   S
    Zn13   Ts151     0.68771      .   S
    Zn14   Ts152     0.69523      .   S
    Zn14   Ts153     0.68687      .   S
    Zn23   Ts154     0.67435      .   S
    Zn23   Ts155     0.68609      .   S
    C28    Og156     0.48335      .   S
    C29    Og157     0.49854      .   S
    C30    Og158     0.49235      .   S
    C31    Og159     0.49310      .   S
    C32    Og160     0.48782      .   S
    C33    Og161     0.50966      .   S
    C34    Og162     0.49226      .   S
    C35    Og163     0.49287      .   S
    C36    Og164     0.48317      .   S
    C37    Og165     0.49821      .   S
    C38    Og166     0.48367      .   S
    C39    Og167     0.49317      .   S
    C40    Og168     0.48307      .   S
    C41    Og169     0.49850      .   S
    C42    Og170     0.49220      .   S
    C43    Og171     0.49315  1_554   S
    C44    Og172     0.48340      .   S
    C45    Og173     0.49827      .   S
    C46    Og174     0.49239      .   S
    C47    Og175     0.49311      .   S
    C48    Og176     0.48290      .   S
    C49    Og177     0.49839      .   S
    C54    Og178     0.49225      .   S
    C55    Og179     0.49296      .   S
    C56    Og180     0.48304      .   S
    C57    Og181     0.49815      .   S
    C58    Og182     0.49230      .   S
    C59    Og183     0.49306      .   S
    C60    Og184     0.48856      .   S
    C61    Og185     0.51332      .   S
    C62    Og186     0.48335      .   S
    C63    Og187     0.49307  1_556   S
