# CIF file generated by openbabel 2.4.90, see http://openbabel.sf.net
data_I
_chemical_name_common ''
_cell_length_a 14.172
_cell_length_b 15
_cell_length_c 15.368
_cell_angle_alpha 90.097
_cell_angle_beta 90.015
_cell_angle_gamma 90.035
_space_group_name_H-M_alt 'P 1'
_space_group_name_Hall 'P 1'
loop_
    _symmetry_equiv_pos_as_xyz
    x,y,z
loop_
    _atom_site_label
    _atom_site_type_symbol
    _atom_site_fract_x
    _atom_site_fract_y
    _atom_site_fract_z
    _atom_site_occupancy
    C0      C    0.57336   0.19326   0.83687   1.000
    C1      C    0.57838   0.24851   0.61692   1.000
    C2      C    0.17603   0.39502   0.46467   1.000
    C3      C    0.16613   0.61815   0.49144   1.000
    C4      C    0.92822   0.69341   0.16312   1.000
    C5      C    0.92267   0.74843   0.38355   1.000
    C6      C    0.32404   0.89521   0.53485   1.000
    C7      C    0.33400   0.11867   0.50736   1.000
    C8      C    0.42676   0.30528   0.33711   1.000
    C9      C    0.42166   0.25117   0.11729   1.000
    C10     C    0.82418   0.10466   0.96455   1.000
    C11     C    0.83412   0.88149   0.99135   1.000
    C12     C    0.07409   0.80674   0.66320   1.000
    C13     C    0.07982   0.75122   0.88221   1.000
    C14     C    0.67693   0.60508   0.03524   1.000
    C15     C    0.66696   0.38149   0.00752   1.000
    C16     C    0.42685   0.80669   0.16296   1.000
    C17     C    0.42171   0.75133   0.38256   1.000
    C18     C    0.82419   0.60501   0.53535   1.000
    C19     C    0.83396   0.38186   0.50859   1.000
    C20     C    0.07205   0.30665   0.83666   1.000
    C21     C    0.07823   0.25158   0.61665   1.000
    C22     C    0.67705   0.10499   0.46435   1.000
    C23     C    0.66700   0.88146   0.49147   1.000
    C24     C    0.57332   0.69479   0.66271   1.000
    C25     C    0.57857   0.74887   0.88246   1.000
    C26     C    0.17616   0.89526   0.03523   1.000
    C27     C    0.16610   0.11836   0.00837   1.000
    C28     C    0.92781   0.19425   0.33652   1.000
    C29     C    0.92068   0.24886   0.11739   1.000
    C30     C    0.32356   0.39504   0.96457   1.000
    C31     C    0.33365   0.61854   0.99255   1.000
