# CIF file generated by openbabel 2.4.90, see http://openbabel.sf.net
data_I
_chemical_name_common ''
_cell_length_a 14.172
_cell_length_b 15
_cell_length_c 15.368
_cell_angle_alpha 90.097
_cell_angle_beta 90.015
_cell_angle_gamma 90.035
_space_group_name_H-M_alt 'P 1'
_space_group_name_Hall 'P 1'
loop_
    _symmetry_equiv_pos_as_xyz
    x,y,z
loop_
    _atom_site_label
    _atom_site_type_symbol
    _atom_site_fract_x
    _atom_site_fract_y
    _atom_site_fract_z
    _atom_site_occupancy
    Zr0     Zr   0.38742   0.30448   0.53981   1.000
    Zr1     Zr   0.37419   0.70706   0.56646   1.000
    Zr2     Zr   0.11125   0.80460   0.46219   1.000
    Zr3     Zr   0.12725   0.20691   0.43293   1.000
    Zr4     Zr   0.61280   0.19560   0.03946   1.000
    Zr5     Zr   0.62590   0.79299   0.06654   1.000
    Zr6     Zr   0.88922   0.69564   0.96035   1.000
    Zr7     Zr   0.87270   0.29296   0.93301   1.000
    Zr8     Zr   0.61260   0.69558   0.46007   1.000
    Zr9     Zr   0.62586   0.29297   0.43343   1.000
    Zr10    Zr   0.88924   0.19556   0.53758   1.000
    Zr11    Zr   0.87303   0.79311   0.56671   1.000
    Zr12    Zr   0.38728   0.80439   0.96033   1.000
    Zr13    Zr   0.37418   0.20703   0.93336   1.000
    Zr14    Zr   0.11076   0.30446   0.03775   1.000
    Zr15    Zr   0.12729   0.70703   0.06680   1.000
    Zr16    Zr   0.00006   0.49997   0.49999   1.000
    Zr17    Zr   0.50099   0.99987   0.49982   1.000
    Zr18    Zr   0.00007   0.99993   0.99999   1.000
    Zr19    Zr   0.50052   0.49995   0.99998   1.000
    Zr20    Zr   0.70493   0.18302   0.86599   1.000
    Zr21    Zr   0.79659   0.68355   0.13355   1.000
    Zr22    Zr   0.29526   0.31440   0.36622   1.000
    Zr23    Zr   0.20548   0.81468   0.63353   1.000
    Zr24    Zr   0.29533   0.81695   0.13382   1.000
    Zr25    Zr   0.20376   0.31658   0.86634   1.000
    Zr26    Zr   0.70482   0.68560   0.63358   1.000
    Zr27    Zr   0.79627   0.18568   0.36644   1.000
    Zr28    Zr   0.57336   0.19326   0.83687   1.000
    Zr29    Zr   0.57838   0.24851   0.61692   1.000
    Zr30    Zr   0.17603   0.39502   0.46467   1.000
    Zr31    Zr   0.16613   0.61815   0.49144   1.000
    Zr32    Zr   0.92822   0.69341   0.16312   1.000
    Zr33    Zr   0.92267   0.74843   0.38355   1.000
    Zr34    Zr   0.32404   0.89521   0.53485   1.000
    Zr35    Zr   0.33400   0.11867   0.50736   1.000
    Zr36    Zr   0.42676   0.30528   0.33711   1.000
    Zr37    Zr   0.42166   0.25117   0.11729   1.000
    Zr38    Zr   0.82418   0.10466   0.96455   1.000
    Zr39    Zr   0.83412   0.88149   0.99135   1.000
    Zr40    Zr   0.07409   0.80674   0.66320   1.000
    Zr41    Zr   0.07982   0.75122   0.88221   1.000
    Zr42    Zr   0.67693   0.60508   0.03524   1.000
    Zr43    Zr   0.66696   0.38149   0.00752   1.000
    Zr44    Zr   0.42685   0.80669   0.16296   1.000
    Zr45    Zr   0.42171   0.75133   0.38256   1.000
    Zr46    Zr   0.82419   0.60501   0.53535   1.000
    Zr47    Zr   0.83396   0.38186   0.50859   1.000
    Zr48    Zr   0.07205   0.30665   0.83666   1.000
    Zr49    Zr   0.07823   0.25158   0.61665   1.000
    Zr50    Zr   0.67705   0.10499   0.46435   1.000
    Zr51    Zr   0.66700   0.88146   0.49147   1.000
    Zr52    Zr   0.57332   0.69479   0.66271   1.000
    Zr53    Zr   0.57857   0.74887   0.88246   1.000
    Zr54    Zr   0.17616   0.89526   0.03523   1.000
    Zr55    Zr   0.16610   0.11836   0.00837   1.000
    Zr56    Zr   0.92781   0.19425   0.33652   1.000
    Zr57    Zr   0.92068   0.24886   0.11739   1.000
    Zr58    Zr   0.32356   0.39504   0.96457   1.000
    Zr59    Zr   0.33365   0.61854   0.99255   1.000
    Zr60    Zr   0.54732   0.16755   0.91091   1.000
    Zr61    Zr   0.66258   0.19917   0.81449   1.000
    Zr62    Zr   0.65855   0.21835   0.62705   1.000
    Zr63    Zr   0.54668   0.28493   0.54420   1.000
    Zr64    Zr   0.21179   0.32392   0.43203   1.000
    Zr65    Zr   0.08731   0.40591   0.46313   1.000
    Zr66    Zr   0.08666   0.59526   0.45950   1.000
    Zr67    Zr   0.18915   0.69919   0.50387   1.000
    Zr68    Zr   0.95456   0.66782   0.08903   1.000
    Zr69    Zr   0.83890   0.69919   0.18528   1.000
    Zr70    Zr   0.84239   0.71851   0.37327   1.000
    Zr71    Zr   0.95439   0.78446   0.45677   1.000
    Zr72    Zr   0.28830   0.82394   0.56699   1.000
    Zr73    Zr   0.41273   0.90651   0.53696   1.000
    Zr74    Zr   0.41471   0.09711   0.53722   1.000
    Zr75    Zr   0.30927   0.19956   0.49681   1.000
    Zr76    Zr   0.45259   0.33249   0.41078   1.000
    Zr77    Zr   0.33758   0.29721   0.31505   1.000
    Zr78    Zr   0.34160   0.28140   0.12807   1.000
    Zr79    Zr   0.45313   0.21514   0.04421   1.000
    Zr80    Zr   0.78835   0.17559   0.93181   1.000
    Zr81    Zr   0.91292   0.09391   0.96312   1.000
    Zr82    Zr   0.91370   0.90408   0.95957   1.000
    Zr83    Zr   0.81093   0.80048   0.00344   1.000
    Zr84    Zr   0.04844   0.83576   0.59024   1.000
    Zr85    Zr   0.16328   0.79731   0.68470   1.000
    Zr86    Zr   0.15991   0.78138   0.87111   1.000
    Zr87    Zr   0.04859   0.71530   0.95535   1.000
    Zr88    Zr   0.71244   0.67634   0.06779   1.000
    Zr89    Zr   0.58827   0.59372   0.03698   1.000
    Zr90    Zr   0.58648   0.40316   0.03787   1.000
    Zr91    Zr   0.69127   0.30056   0.99645   1.000
    Zr92    Zr   0.45284   0.83247   0.08894   1.000
    Zr93    Zr   0.33763   0.80082   0.18536   1.000
    Zr94    Zr   0.34157   0.78131   0.37182   1.000
    Zr95    Zr   0.45324   0.71523   0.45553   1.000
    Zr96    Zr   0.78855   0.67618   0.56799   1.000
    Zr97    Zr   0.91289   0.59404   0.53692   1.000
    Zr98    Zr   0.91346   0.40470   0.54050   1.000
    Zr99    Zr   0.81090   0.30082   0.49619   1.000
    Zr100   Zr   0.04553   0.33232   0.91071   1.000
    Zr101   Zr   0.16138   0.30083   0.81468   1.000
    Zr102   Zr   0.15844   0.28156   0.62733   1.000
    Zr103   Zr   0.04675   0.21552   0.54346   1.000
    Zr104   Zr   0.71240   0.17632   0.43206   1.000
    Zr105   Zr   0.58838   0.09372   0.46295   1.000
    Zr106   Zr   0.58691   0.90329   0.46035   1.000
    Zr107   Zr   0.69094   0.80054   0.50321   1.000
    Zr108   Zr   0.54745   0.66766   0.58901   1.000
    Zr109   Zr   0.66251   0.70274   0.68478   1.000
    Zr110   Zr   0.65863   0.71872   0.87145   1.000
    Zr111   Zr   0.54713   0.78482   0.95560   1.000
    Zr112   Zr   0.21209   0.82430   0.06780   1.000
    Zr113   Zr   0.08742   0.90603   0.03682   1.000
    Zr114   Zr   0.08658   0.09574   0.04025   1.000
    Zr115   Zr   0.18921   0.19936   0.99606   1.000
    Zr116   Zr   0.95414   0.16645   0.40979   1.000
    Zr117   Zr   0.83852   0.20272   0.31519   1.000
    Zr118   Zr   0.84069   0.21860   0.12883   1.000
    Zr119   Zr   0.95146   0.28480   0.04412   1.000
    Zr120   Zr   0.28795   0.32379   0.93195   1.000
    Zr121   Zr   0.41223   0.40632   0.96299   1.000
    Zr122   Zr   0.41432   0.59694   0.96261   1.000
    Zr123   Zr   0.30908   0.69945   0.00340   1.000
    O124    O    0.34818   0.75192   0.98186   1.000
    O125    O    0.32136   0.65899   0.99798   1.000
    O126    O    0.85008   0.74806   0.98189   1.000
    O127    O    0.82253   0.84099   0.99740   1.000
    O128    O    0.62672   0.39233   0.02269   1.000
    O129    O    0.67911   0.34103   0.00198   1.000
    O130    O    0.12634   0.10705   0.02431   1.000
    O131    O    0.17766   0.15886   0.00221   1.000
    O132    O    0.13179   0.90064   0.03603   1.000
    O133    O    0.19412   0.85978   0.05151   1.000
    O134    O    0.63260   0.59940   0.03611   1.000
    O135    O    0.69468   0.64071   0.05151   1.000
    O136    O    0.04375   0.95298   0.01841   1.000
    O137    O    0.54439   0.54683   0.01848   1.000
    O138    O    0.07815   0.31839   0.97423   1.000
    O139    O    0.14999   0.25191   0.01690   1.000
    O140    O    0.54350   0.45155   0.01893   1.000
    O141    O    0.58006   0.18157   0.97518   1.000
    O142    O    0.65204   0.24808   0.01795   1.000
    O143    O    0.04333   0.04783   0.02012   1.000
    O144    O    0.93607   0.26683   0.08076   1.000
    O145    O    0.91208   0.28888   0.98856   1.000
    O146    O    0.43740   0.23315   0.08075   1.000
    O147    O    0.41366   0.21108   0.98878   1.000
    O148    O    0.66917   0.73466   0.06716   1.000
    O149    O    0.58651   0.78891   0.01107   1.000
    O150    O    0.16969   0.76566   0.06730   1.000
    O151    O    0.08794   0.71116   0.01107   1.000
    O152    O    0.43985   0.81958   0.12595   1.000
    O153    O    0.42006   0.81843   0.02464   1.000
    O154    O    0.94139   0.68061   0.12608   1.000
    O155    O    0.92189   0.68173   0.02469   1.000
    O156    O    0.38163   0.26628   0.12268   1.000
    O157    O    0.88069   0.23373   0.12311   1.000
    O158    O    0.81774   0.69137   0.15941   1.000
    O159    O    0.31648   0.80888   0.15959   1.000
    O160    O    0.38224   0.80375   0.17416   1.000
    O161    O    0.88356   0.69630   0.17420   1.000
    O162    O    0.38217   0.30125   0.32608   1.000
    O163    O    0.31642   0.30581   0.34063   1.000
    O164    O    0.88317   0.19849   0.32586   1.000
    O165    O    0.81740   0.19420   0.34082   1.000
    O166    O    0.94098   0.18035   0.37316   1.000
    O167    O    0.43967   0.31888   0.37394   1.000
    O168    O    0.38164   0.76632   0.37719   1.000
    O169    O    0.88253   0.73347   0.37841   1.000
    O170    O    0.43748   0.73328   0.41904   1.000
    O171    O    0.93853   0.76644   0.42016   1.000
    O172    O    0.92169   0.18100   0.47369   1.000
    O173    O    0.42000   0.31849   0.47530   1.000
    O174    O    0.16952   0.26541   0.43248   1.000
    O175    O    0.19391   0.35947   0.44835   1.000
    O176    O    0.66913   0.23464   0.43275   1.000
    O177    O    0.69473   0.14065   0.44820   1.000
    O178    O    0.08700   0.21121   0.48820   1.000
    O179    O    0.58627   0.28895   0.48882   1.000
    O180    O    0.41371   0.71114   0.51099   1.000
    O181    O    0.91371   0.78878   0.51174   1.000
    O182    O    0.12640   0.60670   0.47547   1.000
    O183    O    0.04336   0.54762   0.47974   1.000
    O184    O    0.65177   0.74806   0.48164   1.000
    O185    O    0.58003   0.68162   0.52454   1.000
    O186    O    0.62696   0.89237   0.47591   1.000
    O187    O    0.54395   0.95158   0.48008   1.000
    O188    O    0.15020   0.75190   0.48303   1.000
    O189    O    0.07984   0.82018   0.52621   1.000
    O190    O    0.63272   0.09935   0.46365   1.000
    O191    O    0.54468   0.04679   0.48138   1.000
    O192    O    0.13167   0.40046   0.46390   1.000
    O193    O    0.04369   0.45294   0.48156   1.000
    O194    O    0.17764   0.65867   0.49766   1.000
    O195    O    0.67897   0.84100   0.49734   1.000
    O196    O    0.82243   0.34134   0.50239   1.000
    O197    O    0.85007   0.24819   0.51689   1.000
    O198    O    0.32164   0.15912   0.50208   1.000
    O199    O    0.34834   0.25202   0.51831   1.000
    O200    O    0.45686   0.95319   0.51839   1.000
    O201    O    0.45785   0.04849   0.51852   1.000
    O202    O    0.95648   0.54700   0.51845   1.000
    O203    O    0.95676   0.45234   0.52024   1.000
    O204    O    0.37436   0.10789   0.52229   1.000
    O205    O    0.87371   0.39328   0.52454   1.000
    O206    O    0.36838   0.90086   0.53591   1.000
    O207    O    0.30617   0.85958   0.55092   1.000
    O208    O    0.86854   0.59952   0.53613   1.000
    O209    O    0.80637   0.64059   0.55167   1.000
    O210    O    0.06249   0.23355   0.58006   1.000
    O211    O    0.56253   0.26672   0.58056   1.000
    O212    O    0.33124   0.76550   0.56672   1.000
    O213    O    0.83079   0.73464   0.56735   1.000
    O214    O    0.56039   0.68122   0.62586   1.000
    O215    O    0.06126   0.82125   0.62672   1.000
    O216    O    0.11833   0.26657   0.62199   1.000
    O217    O    0.61846   0.23343   0.62199   1.000
    O218    O    0.18438   0.80600   0.65911   1.000
    O219    O    0.68366   0.69417   0.65918   1.000
    O220    O    0.61791   0.69876   0.67374   1.000
    O221    O    0.11868   0.80203   0.67395   1.000
    O222    O    0.61797   0.19622   0.82568   1.000
    O223    O    0.68375   0.19110   0.84024   1.000
    O224    O    0.11671   0.30374   0.82567   1.000
    O225    O    0.18256   0.30871   0.84051   1.000
    O226    O    0.05879   0.31949   0.87369   1.000
    O227    O    0.56034   0.18040   0.87389   1.000
    O228    O    0.11987   0.76630   0.87666   1.000
    O229    O    0.61860   0.73380   0.87696   1.000
    O230    O    0.06421   0.73326   0.91878   1.000
    O231    O    0.56285   0.76685   0.91903   1.000
    O232    O    0.83053   0.23427   0.93241   1.000
    O233    O    0.80627   0.14013   0.94818   1.000
    O234    O    0.33106   0.26541   0.93266   1.000
    O235    O    0.30575   0.35941   0.94826   1.000
    O236    O    0.87391   0.89279   0.97546   1.000
    O237    O    0.95689   0.95200   0.97978   1.000
    O238    O    0.37398   0.60774   0.97758   1.000
    O239    O    0.45742   0.54844   0.98130   1.000
    O240    O    0.36789   0.40068   0.96378   1.000
    O241    O    0.45637   0.45314   0.98149   1.000
    O242    O    0.86855   0.09928   0.96383   1.000
    O243    O    0.95650   0.04692   0.98155   1.000
    O244    O    0.46705   0.29471   0.54201   1.000
    O245    O    0.03282   0.79453   0.45948   1.000
    O246    O    0.53297   0.20537   0.04183   1.000
    O247    O    0.96891   0.70547   0.95785   1.000
    O248    O    0.53292   0.70540   0.45780   1.000
    O249    O    0.96800   0.20554   0.54052   1.000
    O250    O    0.46720   0.79461   0.95797   1.000
    O251    O    0.03111   0.29463   0.04093   1.000
    N252    N    0.91189   0.25198   0.73230   1.000
    O253    O    0.90664   0.23252   0.66637   1.000
    O254    O    0.97649   0.25233   0.69173   1.000
    O255    O    0.90147   0.26746   0.80013   1.000
    O256    O    0.97439   0.27265   0.76865   1.000
    N257    N    0.58768   0.75217   0.26643   1.000
    O258    O    0.59361   0.73266   0.33207   1.000
    O259    O    0.52494   0.77274   0.23044   1.000
    O260    O    0.52324   0.75234   0.30722   1.000
    O261    O    0.59774   0.76761   0.19885   1.000
    N262    N    0.67508   0.99527   0.04306   1.000
    O263    O    0.73299   0.03401   0.01266   1.000
    O264    O    0.73650   0.95503   0.02325   1.000
    O265    O    0.65847   0.06397   0.04017   1.000
    O266    O    0.66339   0.92611   0.05125   1.000
    N267    N    0.91327   0.75216   0.76664   1.000
    O268    O    0.90763   0.73262   0.83228   1.000
    O269    O    0.97597   0.77272   0.73059   1.000
    O270    O    0.90262   0.76771   0.69905   1.000
    O271    O    0.97792   0.75221   0.80720   1.000
    N272    N    0.67491   0.49541   0.45615   1.000
    O273    O    0.66323   0.42620   0.44835   1.000
    O274    O    0.73287   0.53424   0.48582   1.000
    O275    O    0.65831   0.56409   0.45926   1.000
    O276    O    0.73631   0.45525   0.47636   1.000
    N277    N    0.41232   0.74788   0.76666   1.000
    O278    O    0.47512   0.72786   0.73045   1.000
    O279    O    0.47687   0.74784   0.80731   1.000
    O280    O    0.40637   0.76729   0.83234   1.000
    O281    O    0.40227   0.73250   0.69895   1.000
    N282    N    0.08933   0.74800   0.26744   1.000
    O283    O    0.09425   0.76749   0.33338   1.000
    O284    O    0.02672   0.72736   0.23113   1.000
    O285    O    0.09920   0.73253   0.19963   1.000
    O286    O    0.02533   0.74766   0.30817   1.000
    N287    N    0.58781   0.25203   0.23326   1.000
    O288    O    0.52499   0.27211   0.26942   1.000
    O289    O    0.59376   0.23264   0.16754   1.000
    O290    O    0.59783   0.26745   0.30095   1.000
    O291    O    0.52329   0.25212   0.19254   1.000
    N292    N    0.32521   0.00470   0.95601   1.000
    O293    O    0.34177   0.93600   0.95925   1.000
    O294    O    0.26732   0.96595   0.98569   1.000
    O295    O    0.26377   0.04490   0.97617   1.000
    O296    O    0.33684   0.07387   0.94821   1.000
    N297    N    0.08895   0.24826   0.23213   1.000
    O298    O    0.09895   0.23265   0.29996   1.000
    O299    O    0.02643   0.22787   0.26853   1.000
    O300    O    0.02464   0.24808   0.19188   1.000
    O301    O    0.09367   0.26767   0.16630   1.000
    N302    N    0.17498   0.00455   0.45567   1.000
    O303    O    0.15797   0.93596   0.45951   1.000
    O304    O    0.16368   0.07372   0.44781   1.000
    O305    O    0.23288   0.96583   0.48530   1.000
    O306    O    0.23645   0.04487   0.47557   1.000
    N307    N    0.82582   0.49560   0.95566   1.000
    O308    O    0.83688   0.42637   0.94779   1.000
    O309    O    0.84277   0.56423   0.95907   1.000
    O310    O    0.76441   0.45531   0.97564   1.000
    O311    O    0.76800   0.53439   0.98547   1.000
    N312    N    0.17445   0.50451   0.04295   1.000
    O313    O    0.15742   0.43589   0.03954   1.000
    O314    O    0.16332   0.57371   0.05134   1.000
    O315    O    0.23599   0.54478   0.02363   1.000
    O316    O    0.23236   0.46573   0.01262   1.000
    N317    N    0.32526   0.50467   0.54385   1.000
    O318    O    0.34182   0.43599   0.54071   1.000
    O319    O    0.26383   0.54480   0.52365   1.000
    O320    O    0.33690   0.57387   0.55161   1.000
    O321    O    0.26731   0.46582   0.51419   1.000
    N322    N    0.41258   0.24767   0.73333   1.000
    O323    O    0.40247   0.23228   0.80096   1.000
    O324    O    0.40659   0.26722   0.66772   1.000
    O325    O    0.47531   0.22712   0.76934   1.000
    O326    O    0.47699   0.24748   0.69246   1.000
    N327    N    0.82614   0.99545   0.54323   1.000
    O328    O    0.76463   0.95518   0.52330   1.000
    O329    O    0.83719   0.92630   0.55131   1.000
    O330    O    0.76826   0.03424   0.51363   1.000
    O331    O    0.84302   0.06408   0.53958   1.000
loop_
    _geom_bond_atom_site_label_1
    _geom_bond_atom_site_label_2
    _geom_bond_distance
    _geom_bond_site_symmetry_2
    _ccdc_geom_bond_type
    Zr123  O124      1.01809  1_554   S
    Zr12   O124      1.01809      .   S
    Zr123  O125      0.63675  1_554   S
    Zr59   O125      0.63675      .   S
    Zr83   O126      1.01752  1_554   S
    Zr6    O126      1.01752      .   S
    Zr83   O127      0.63632  1_554   S
    Zr39   O127      0.63632      .   S
    Zr43   O128      0.63719      .   S
    Zr90   O128      0.63719      .   S
    Zr43   O129      0.63669      .   S
    Zr91   O129      0.63669  1_556   S
    Zr55   O130      0.63749      .   S
    Zr114  O130      0.63749      .   S
    Zr55   O131      0.63633      .   S
    Zr115  O131      0.63633  1_556   S
    Zr54   O132      0.63413      .   S
    Zr113  O132      0.63413      .   S
    Zr54   O133      0.64129      .   S
    Zr112  O133      0.64129      .   S
    Zr42   O134      0.63407      .   S
    Zr89   O134      0.63407      .   S
    Zr42   O135      0.64102      .   S
    Zr88   O135      0.64102      .   S
    Zr113  O136      0.97992      .   S
    Zr18   O136      0.97992  1_556   S
    Zr89   O137      0.98017      .   S
    Zr19   O137      0.98017  1_556   S
    Zr14   O138      1.10033  1_554   S
    Zr100  O138      1.10033      .   S
    Zr14   O139      1.01622      .   S
    Zr115  O139      1.01622  1_556   S
    Zr90   O140      0.99193      .   S
    Zr19   O140      0.99193  1_556   S
    Zr4    O141      1.11096  1_554   S
    Zr60   O141      1.11096      .   S
    Zr4    O142      1.01906      .   S
    Zr91   O142      1.01906  1_556   S
    Zr114  O143      0.99316      .   S
    Zr18   O143      0.99316  1_566   S
    Zr119  O144      0.66162      .   S
    Zr57   O144      0.66162      .   S
    Zr119  O145      1.02179  1_554   S
    Zr7    O145      1.02179      .   S
    Zr79   O146      0.66162      .   S
    Zr37   O146      0.66162      .   S
    Zr79   O147      1.02068  1_554   S
    Zr13   O147      1.02068      .   S
    Zr5    O148      1.06874      .   S
    Zr88   O148      1.06874      .   S
    Zr5    O149      1.02055      .   S
    Zr111  O149      1.02055  1_556   S
    Zr15   O150      1.06492      .   S
    Zr112  O150      1.06492      .   S
    Zr15   O151      1.02383      .   S
    Zr87   O151      1.02383  1_556   S
    Zr92   O152      0.62864      .   S
    Zr44   O152      0.62864      .   S
    Zr92   O153      1.11164      .   S
    Zr12   O153      1.11164  1_556   S
    Zr68   O154      0.62891      .   S
    Zr32   O154      0.62891      .   S
    Zr68   O155      1.11187      .   S
    Zr6    O155      1.11187  1_556   S
    Zr37   O156      0.61659      .   S
    Zr78   O156      0.61659      .   S
    Zr57   O157      0.61679      .   S
    Zr118  O157      0.61679      .   S
    Zr21   O158      0.51124      .   S
    Zr69   O158      0.51124      .   S
    Zr24   O159      0.51133      .   S
    Zr93   O159      0.51133      .   S
    Zr44   O160      0.65670      .   S
    Zr93   O160      0.65670      .   S
    Zr32   O161      0.65692      .   S
    Zr69   O161      0.65692      .   S
    Zr77   O162      0.65692      .   S
    Zr36   O162      0.65692      .   S
    Zr77   O163      0.51102      .   S
    Zr22   O163      0.51102      .   S
    Zr117  O164      0.65674      .   S
    Zr56   O164      0.65674      .   S
    Zr117  O165      0.51104      .   S
    Zr27   O165      0.51104      .   S
    Zr56   O166      0.62896      .   S
    Zr116  O166      0.62896      .   S
    Zr36   O167      0.62858      .   S
    Zr76   O167      0.62858      .   S
    Zr94   O168      0.61652      .   S
    Zr45   O168      0.61652      .   S
    Zr70   O169      0.61638      .   S
    Zr33   O169      0.61638      .   S
    Zr45   O170      0.66189      .   S
    Zr95   O170      0.66189      .   S
    Zr33   O171      0.66286      .   S
    Zr71   O171      0.66286      .   S
    Zr116  O172      1.10593      .   S
    Zr10   O172      1.10593      .   S
    Zr76   O173      1.11412      .   S
    Zr0    O173      1.11412      .   S
    Zr64   O174      1.06228      .   S
    Zr3    O174      1.06228      .   S
    Zr64   O175      0.64123      .   S
    Zr30   O175      0.64123      .   S
    Zr104  O176      1.06880      .   S
    Zr9    O176      1.06880      .   S
    Zr104  O177      0.64095      .   S
    Zr50   O177      0.64095      .   S
    Zr3    O178      1.02517      .   S
    Zr103  O178      1.02517      .   S
    Zr9    O179      1.02139      .   S
    Zr63   O179      1.02139      .   S
    Zr95   O180      1.02204      .   S
    Zr1    O180      1.02204      .   S
    Zr71   O181      1.02487      .   S
    Zr11   O181      1.02487      .   S
    Zr66   O182      0.63754      .   S
    Zr31   O182      0.63754      .   S
    Zr66   O183      0.99215      .   S
    Zr16   O183      0.99215      .   S
    Zr8    O184      1.01796      .   S
    Zr107  O184      1.01796      .   S
    Zr8    O185      1.11324      .   S
    Zr108  O185      1.11324      .   S
    Zr106  O186      0.63738      .   S
    Zr51   O186      0.63738      .   S
    Zr106  O187      0.99363      .   S
    Zr17   O187      0.99363      .   S
    Zr2    O188      1.01665      .   S
    Zr67   O188      1.01665      .   S
    Zr2    O189      1.10478      .   S
    Zr84   O189      1.10478      .   S
    Zr105  O190      0.63406      .   S
    Zr50   O190      0.63406      .   S
    Zr105  O191      0.97948      .   S
    Zr17   O191      0.97948  1_565   S
    Zr65   O192      0.63411      .   S
    Zr30   O192      0.63411      .   S
    Zr65   O193      0.97982      .   S
    Zr16   O193      0.97982      .   S
    Zr31   O194      0.63627      .   S
    Zr67   O194      0.63627      .   S
    Zr51   O195      0.63677      .   S
    Zr107  O195      0.63677      .   S
    Zr99   O196      0.63630      .   S
    Zr47   O196      0.63630      .   S
    Zr99   O197      1.01679      .   S
    Zr10   O197      1.01679      .   S
    Zr75   O198      0.63685      .   S
    Zr35   O198      0.63685      .   S
    Zr75   O199      1.01664      .   S
    Zr0    O199      1.01664      .   S
    Zr17   O200      0.98140      .   S
    Zr73   O200      0.98140      .   S
    Zr17   O201      0.99402  1_565   S
    Zr74   O201      0.99402      .   S
    Zr16   O202      0.97968  1_455   S
    Zr97   O202      0.97968      .   S
    Zr16   O203      0.99217  1_455   S
    Zr98   O203      0.99217      .   S
    Zr35   O204      0.63720      .   S
    Zr74   O204      0.63720      .   S
    Zr47   O205      0.63752      .   S
    Zr98   O205      0.63752      .   S
    Zr34   O206      0.63428      .   S
    Zr73   O206      0.63428      .   S
    Zr34   O207      0.64126      .   S
    Zr72   O207      0.64126      .   S
    Zr46   O208      0.63402      .   S
    Zr97   O208      0.63402      .   S
    Zr46   O209      0.64135      .   S
    Zr96   O209      0.64135      .   S
    Zr103  O210      0.66222      .   S
    Zr49   O210      0.66222      .   S
    Zr63   O211      0.66172      .   S
    Zr29   O211      0.66172      .   S
    Zr1    O212      1.06746      .   S
    Zr72   O212      1.06746      .   S
    Zr11   O213      1.06163      .   S
    Zr96   O213      1.06163      .   S
    Zr108  O214      0.62866      .   S
    Zr52   O214      0.62866      .   S
    Zr84   O215      0.62853      .   S
    Zr40   O215      0.62853      .   S
    Zr49   O216      0.61653      .   S
    Zr102  O216      0.61653      .   S
    Zr29   O217      0.61651      .   S
    Zr62   O217      0.61651      .   S
    Zr23   O218      0.51109      .   S
    Zr85   O218      0.51109      .   S
    Zr26   O219      0.51102      .   S
    Zr109  O219      0.51102      .   S
    Zr52   O220      0.65695      .   S
    Zr109  O220      0.65695      .   S
    Zr40   O221      0.65709      .   S
    Zr85   O221      0.65709      .   S
    Zr61   O222      0.65670      .   S
    Zr28   O222      0.65670      .   S
    Zr61   O223      0.51135      .   S
    Zr20   O223      0.51135      .   S
    Zr101  O224      0.65662      .   S
    Zr48   O224      0.65662      .   S
    Zr101  O225      0.51138      .   S
    Zr25   O225      0.51138      .   S
    Zr48   O226      0.62920      .   S
    Zr100  O226      0.62920      .   S
    Zr28   O227      0.62867      .   S
    Zr60   O227      0.62867      .   S
    Zr86   O228      0.61678      .   S
    Zr41   O228      0.61678      .   S
    Zr110  O229      0.61663      .   S
    Zr53   O229      0.61663      .   S
    Zr41   O230      0.66170      .   S
    Zr87   O230      0.66170      .   S
    Zr53   O231      0.66165      .   S
    Zr111  O231      0.66165      .   S
    Zr80   O232      1.06375      .   S
    Zr7    O232      1.06375      .   S
    Zr80   O233      0.64132      .   S
    Zr38   O233      0.64132      .   S
    Zr120  O234      1.06817      .   S
    Zr13   O234      1.06817      .   S
    Zr120  O235      0.64139      .   S
    Zr58   O235      0.64139      .   S
    Zr82   O236      0.63753      .   S
    Zr39   O236      0.63753      .   S
    Zr82   O237      0.99323      .   S
    Zr18   O237      0.99323  1_455   S
    Zr122  O238      0.63722      .   S
    Zr59   O238      0.63722      .   S
    Zr122  O239      0.99289      .   S
    Zr19   O239      0.99289      .   S
    Zr121  O240      0.63405      .   S
    Zr58   O240      0.63405      .   S
    Zr121  O241      0.98184      .   S
    Zr19   O241      0.98184      .   S
    Zr81   O242      0.63408      .   S
    Zr38   O242      0.63408      .   S
    Zr81   O243      0.97959      .   S
    Zr18   O243      0.97959  1_465   S
    Zr63   O244      1.13858      .   S
    Zr0    O244      1.13858      .   S
    Zr71   O245      1.12236  1_655   S
    Zr2    O245      1.12236      .   S
    Zr79   O246      1.14156      .   S
    Zr4    O246      1.14156      .   S
    Zr87   O247      1.13943  1_455   S
    Zr6    O247      1.13943      .   S
    Zr95   O248      1.13942      .   S
    Zr8    O248      1.13942      .   S
    Zr103  O249      1.12692  1_455   S
    Zr10   O249      1.12692      .   S
    Zr111  O250      1.14284      .   S
    Zr12   O250      1.14284      .   S
    Zr119  O251      1.13938  1_655   S
    Zr14   O251      1.13938      .   S
    N252   O253      1.05648      .   S
    Zr10   O253      2.06918      .   S
    N252   O254      1.10768      .   S
    Zr49   O254      1.84697  1_455   S
    N252   O255      1.07775      .   S
    Zr7    O255      2.11682      .   S
    N252   O256      1.09149      .   S
    Zr48   O256      1.80690  1_455   S
    N257   O258      1.05410      .   S
    Zr8    O258      2.06279      .   S
    N257   O259      1.09200      .   S
    Zr44   O259      1.80813      .   S
    N257   O260      1.10783      .   S
    Zr45   O260      1.84710      .   S
    N257   O261      1.07411      .   S
    Zr5    O261      2.10743      .   S
    N262   O263      1.10890  1_565   S
    Zr38   O263      1.82811  1_556   S
    N262   O264      1.10216      .   S
    Zr39   O264      1.83611  1_556   S
    N262   O265      1.05819  1_565   S
    Zr4    O265      2.07815      .   S
    N262   O266      1.05817      .   S
    Zr5    O266      2.07976      .   S
    N267   O268      1.05388      .   S
    Zr6    O268      2.06228      .   S
    N267   O269      1.09189      .   S
    Zr40   O269      1.80787  1_455   S
    N267   O270      1.07568      .   S
    Zr11   O270      2.11188      .   S
    N267   O271      1.10803      .   S
    Zr41   O271      1.84765  1_455   S
    N272   O273      1.05777      .   S
    Zr9    O273      2.07937      .   S
    N272   O274      1.10462      .   S
    Zr46   O274      1.83756      .   S
    N272   O275      1.05779      .   S
    Zr8    O275      2.07641      .   S
    N272   O276      1.10352      .   S
    Zr47   O276      1.83737      .   S
    N277   O278      1.09166      .   S
    Zr52   O278      1.80740      .   S
    N277   O279      1.10765      .   S
    Zr53   O279      1.84674      .   S
    N277   O280      1.05344      .   S
    Zr12   O280      2.06127      .   S
    N277   O281      1.07482      .   S
    Zr1    O281      2.10870      .   S
    N282   O283      1.05639      .   S
    Zr2    O283      2.06937      .   S
    N282   O284      1.09240      .   S
    Zr32   O284      1.81581  1_655   S
    N282   O285      1.07642      .   S
    Zr15   O285      2.11422      .   S
    N282   O286      1.10210      .   S
    Zr33   O286      1.86013  1_655   S
    N287   O288      1.09177      .   S
    Zr36   O288      1.80768      .   S
    N287   O289      1.05388      .   S
    Zr4    O289      2.06227      .   S
    N287   O290      1.07475      .   S
    Zr9    O290      2.10861      .   S
    N287   O291      1.10777      .   S
    Zr37   O291      1.84693      .   S
    N292   O293      1.05820  1_545   S
    Zr12   O293      2.07734      .   S
    N292   O294      1.10429  1_545   S
    Zr54   O294      1.83701  1_554   S
    N292   O295      1.10354      .   S
    Zr55   O295      1.83728  1_554   S
    N292   O296      1.05750      .   S
    Zr13   O296      2.07891      .   S
    N297   O298      1.07812      .   S
    Zr3    O298      2.11860      .   S
    N297   O299      1.09183      .   S
    Zr56   O299      1.81687  1_655   S
    N297   O300      1.10125      .   S
    Zr57   O300      1.86560  1_655   S
    N297   O301      1.05530      .   S
    Zr14   O301      2.06635      .   S
    N302   O303      1.05838  1_545   S
    Zr2    O303      2.07882      .   S
    N302   O304      1.05699      .   S
    Zr3    O304      2.07673      .   S
    N302   O305      1.10428  1_545   S
    Zr34   O305      1.83695      .   S
    N302   O306      1.10302      .   S
    Zr35   O306      1.83617      .   S
    N307   O308      1.05714      .   S
    Zr7    O308      2.07694      .   S
    N307   O309      1.05813      .   S
    Zr6    O309      2.07792      .   S
    N307   O310      1.10325      .   S
    Zr43   O310      1.83676  1_554   S
    N307   O311      1.10437      .   S
    Zr42   O311      1.83704  1_554   S
    N312   O313      1.05829      .   S
    Zr14   O313      2.07914      .   S
    N312   O314      1.05769      .   S
    Zr15   O314      2.07751      .   S
    N312   O315      1.10171      .   S
    Zr59   O315      1.83517  1_556   S
    N312   O316      1.10867      .   S
    Zr58   O316      1.82747  1_556   S
    N317   O318      1.05776      .   S
    Zr0    O318      2.07613      .   S
    N317   O319      1.10354      .   S
    Zr31   O319      1.83738      .   S
    N317   O320      1.05746      .   S
    Zr1    O320      2.07847      .   S
    N317   O321      1.10451      .   S
    Zr30   O321      1.83736      .   S
    N322   O323      1.07460      .   S
    Zr13   O323      2.10884      .   S
    N322   O324      1.05390      .   S
    Zr0    O324      2.06255      .   S
    N322   O325      1.09182      .   S
    Zr28   O325      1.80781      .   S
    N322   O326      1.10809      .   S
    Zr29   O326      1.84762      .   S
    N327   O328      1.10319      .   S
    Zr51   O328      1.83648      .   S
    N327   O329      1.05659      .   S
    Zr11   O329      2.07555      .   S
    N327   O330      1.10431  1_565   S
    Zr50   O330      1.83701      .   S
    N327   O331      1.05830  1_565   S
    Zr10   O331      2.07804      .   S
