# CIF file generated by openbabel 2.4.90, see http://openbabel.sf.net
data_I
_chemical_name_common ''
_cell_length_a 14.172
_cell_length_b 15
_cell_length_c 15.368
_cell_angle_alpha 90.097
_cell_angle_beta 90.015
_cell_angle_gamma 90.035
_space_group_name_H-M_alt 'P 1'
_space_group_name_Hall 'P 1'
loop_
    _symmetry_equiv_pos_as_xyz
    x,y,z
loop_
    _atom_site_label
    _atom_site_type_symbol
    _atom_site_fract_x
    _atom_site_fract_y
    _atom_site_fract_z
    _atom_site_occupancy
    N0      N    0.91189   0.25198   0.73230   1.000
    N1      N    0.58768   0.75217   0.26643   1.000
    N2      N    0.67508   0.99527   0.04306   1.000
    N3      N    0.91327   0.75216   0.76664   1.000
    N4      N    0.67491   0.49541   0.45615   1.000
    N5      N    0.41232   0.74788   0.76666   1.000
    N6      N    0.08933   0.74800   0.26744   1.000
    N7      N    0.58781   0.25203   0.23326   1.000
    N8      N    0.32521   0.00470   0.95601   1.000
    N9      N    0.08895   0.24826   0.23213   1.000
    N10     N    0.17498   0.00455   0.45567   1.000
    N11     N    0.82582   0.49560   0.95566   1.000
    N12     N    0.17445   0.50451   0.04295   1.000
    N13     N    0.32526   0.50467   0.54385   1.000
    N14     N    0.41258   0.24767   0.73333   1.000
    N15     N    0.82614   0.99545   0.54323   1.000
    Zr16    Zr   0.50023   0.00004   0.49972   1.000
    O17     O    0.54692   0.86635   0.41590   1.000
    O18     O    0.57927   0.78206   0.47949   1.000
    O19     O    0.58173   0.21312   0.47404   1.000
    O20     O    0.54903   0.13374   0.40034   1.000
    O21     O    0.63425   0.01714   0.50668   1.000
    O22     O    0.48767   0.86395   0.61509   1.000
    O23     O    0.51173   0.87619   0.40347   1.000
    O24     O    0.63243   0.97761   0.51151   1.000
    O25     O    0.48861   0.12376   0.59609   1.000
    O26     O    0.36656   0.98293   0.49251   1.000
    O27     O    0.42103   0.21801   0.52022   1.000
    O28     O    0.45341   0.13363   0.58372   1.000
    O29     O    0.45125   0.86627   0.59934   1.000
    O30     O    0.41857   0.78695   0.52567   1.000
    O31     O    0.51261   0.13607   0.38457   1.000
    O32     O    0.36834   0.02245   0.48764   1.000
    Zr33    Zr   0.00041   0.50012   0.50001   1.000
    O34     O    0.86664   0.51718   0.49291   1.000
    O35     O    0.01287   0.62389   0.40409   1.000
    O36     O    0.95152   0.63392   0.59953   1.000
    O37     O    0.91880   0.71321   0.52566   1.000
    O38     O    0.13212   0.52246   0.51183   1.000
    O39     O    0.98819   0.63642   0.61530   1.000
    O40     O    0.01342   0.36400   0.38427   1.000
    O41     O    0.04733   0.63381   0.41669   1.000
    O42     O    0.07919   0.71804   0.47976   1.000
    O43     O    0.86836   0.47769   0.48818   1.000
    O44     O    0.04968   0.36639   0.39998   1.000
    O45     O    0.08205   0.28692   0.47391   1.000
    O46     O    0.98845   0.37623   0.59587   1.000
    O47     O    0.13386   0.48297   0.50710   1.000
    O48     O    0.95352   0.36632   0.58319   1.000
    O49     O    0.92171   0.28210   0.51979   1.000
    Zr50    Zr   0.00013   0.99999   0.99983   1.000
    O51     O    0.01342   0.86368   0.11548   1.000
    O52     O    0.86831   0.97751   0.01154   1.000
    O53     O    0.04966   0.86626   0.09973   1.000
    O54     O    0.08172   0.78685   0.02558   1.000
    O55     O    0.98902   0.87610   0.90351   1.000
    O56     O    0.13195   0.02245   0.98800   1.000
    O57     O    0.01239   0.12404   0.09585   1.000
    O58     O    0.98726   0.13632   0.88424   1.000
    O59     O    0.95388   0.86631   0.91605   1.000
    O60     O    0.92145   0.78211   0.97945   1.000
    O61     O    0.13372   0.98297   0.99276   1.000
    O62     O    0.86656   0.01700   0.00625   1.000
    O63     O    0.95080   0.13373   0.89998   1.000
    O64     O    0.91850   0.21318   0.97381   1.000
    O65     O    0.04690   0.13383   0.08306   1.000
    O66     O    0.07877   0.21794   0.01968   1.000
    Zr67    Zr   0.50017   0.50001   0.99994   1.000
    O68     O    0.41851   0.28694   0.97407   1.000
    O69     O    0.45132   0.36615   0.90045   1.000
    O70     O    0.48852   0.62393   0.90362   1.000
    O71     O    0.51173   0.37607   0.09624   1.000
    O72     O    0.36808   0.52240   0.01178   1.000
    O73     O    0.45327   0.63365   0.91614   1.000
    O74     O    0.42097   0.71801   0.97959   1.000
    O75     O    0.36627   0.48287   0.00628   1.000
    O76     O    0.51256   0.63638   0.11519   1.000
    O77     O    0.54896   0.63381   0.09939   1.000
    O78     O    0.58178   0.71306   0.02559   1.000
    O79     O    0.57932   0.28199   0.02005   1.000
    O80     O    0.54696   0.36633   0.08374   1.000
    O81     O    0.63409   0.51720   0.99270   1.000
    O82     O    0.48774   0.36357   0.88464   1.000
    O83     O    0.63229   0.47766   0.98779   1.000
loop_
    _geom_bond_atom_site_label_1
    _geom_bond_atom_site_label_2
    _geom_bond_distance
    _geom_bond_site_symmetry_2
    _ccdc_geom_bond_type
    Zr16   O17       2.47225  1_545   S
    N1     O17       2.92090      .   S
    Zr16   O18       3.47031  1_545   S
    N4     O18       4.52281      .   S
    Zr16   O19       3.42136      .   S
    N4     O19       4.44372      .   S
    Zr16   O20       2.61587      .   S
    N7     O20       3.17150      .   S
    Zr16   O21       1.91928      .   S
    N15    O21       2.79609  1_565   S
    Zr16   O22       2.71178  1_545   S
    N5     O22       3.10005      .   S
    Zr16   O23       2.37843  1_545   S
    N1     O23       3.00746      .   S
    Zr16   O24       1.91231  1_545   S
    N15    O24       2.80064      .   S
    Zr16   O25       2.37819      .   S
    N14    O25       3.00897      .   S
    Zr16   O26       1.91472  1_545   S
    N10    O26       2.79246  1_545   S
    Zr16   O27       3.47144      .   S
    N13    O27       4.52379      .   S
    Zr16   O28       2.47297      .   S
    N14    O28       2.92156      .   S
    Zr16   O29       2.61933  1_545   S
    N5     O29       3.17568      .   S
    Zr16   O30       3.42266  1_545   S
    N13    O30       4.44442      .   S
    Zr16   O31       2.70896      .   S
    N7     O31       3.09534      .   S
    Zr16   O32       1.90839      .   S
    N10    O32       2.79654      .   S
    Zr33   O34       1.91626  1_455   S
    N4     O34       2.79405      .   S
    Zr33   O35       2.37906      .   S
    N6     O35       3.01021      .   S
    Zr33   O36       2.61513  1_455   S
    N3     O36       3.16574      .   S
    Zr33   O37       3.42198  1_455   S
    N15    O37       4.44108      .   S
    Zr33   O38       1.90479      .   S
    N13    O38       2.79393      .   S
    Zr33   O39       2.70880  1_455   S
    N3     O39       3.08881      .   S
    Zr33   O40       2.71208      .   S
    N9     O40       3.10103      .   S
    Zr33   O41       2.47187      .   S
    N6     O41       2.92606      .   S
    Zr33   O42       3.46806      .   S
    N10    O42       4.52202  1_545   S
    Zr33   O43       1.90979  1_455   S
    N4     O43       2.79825      .   S
    Zr33   O44       2.62039      .   S
    N9     O44       3.17655      .   S
    Zr33   O45       3.42450      .   S
    N10    O45       4.44475      .   S
    Zr33   O46       2.37950  1_455   S
    N0     O46       3.00968      .   S
    Zr33   O47       1.91194      .   S
    N13    O47       2.78924      .   S
    Zr33   O48       2.47210  1_455   S
    N0     O48       2.92464      .   S
    Zr33   O49       3.46852  1_455   S
    N15    O49       4.52227  1_565   S
    Zr50   O51       2.71808  1_556   S
    N6     O51       3.10432      .   S
    Zr50   O52       1.90665  1_456   S
    N2     O52       2.79391      .   S
    Zr50   O53       2.62401  1_556   S
    N6     O53       3.18151      .   S
    Zr50   O54       3.42403  1_556   S
    N12    O54       4.44350      .   S
    Zr50   O55       2.37892  1_455   S
    N3     O55       3.00278      .   S
    Zr50   O56       1.90687  1_565   S
    N8     O56       2.79554      .   S
    Zr50   O57       2.37910  1_566   S
    N9     O57       3.00303      .   S
    Zr50   O58       2.71720  1_465   S
    N0     O58       3.10121      .   S
    Zr50   O59       2.46930  1_455   S
    N3     O59       2.91890      .   S
    Zr50   O60       3.46620  1_455   S
    N11    O60       4.51966      .   S
    Zr50   O61       1.91371      .   S
    N8     O61       2.79101  1_545   S
    Zr50   O62       1.91277  1_466   S
    N2     O62       2.79105  1_565   S
    Zr50   O63       2.62281  1_465   S
    N0     O63       3.17910      .   S
    Zr50   O64       3.42530  1_465   S
    N11    O64       4.44527      .   S
    Zr50   O65       2.46888  1_566   S
    N9     O65       2.92121      .   S
    Zr50   O66       3.46629  1_566   S
    N12    O66       4.52008      .   S
    Zr67   O68       3.42102      .   S
    N8     O68       4.44274      .   S
    Zr67   O69       2.61468      .   S
    N14    O69       3.16833      .   S
    Zr67   O70       2.38379      .   S
    N5     O70       3.01129      .   S
    Zr67   O71       2.38398  1_556   S
    N7     O71       3.01204      .   S
    Zr67   O72       1.91076  1_556   S
    N12    O72       2.79861      .   S
    Zr67   O73       2.47555      .   S
    N5     O73       2.92633      .   S
    Zr67   O74       3.47244      .   S
    N8     O74       4.52531  1_545   S
    Zr67   O75       1.91745  1_556   S
    N12    O75       2.79540      .   S
    Zr67   O76       2.70907  1_556   S
    N1     O76       3.08794      .   S
    Zr67   O77       2.61335  1_556   S
    N1     O77       3.16630      .   S
    Zr67   O78       3.42007  1_556   S
    N2     O78       4.44173      .   S
    Zr67   O79       3.47224  1_556   S
    N2     O79       4.52501  1_565   S
    Zr67   O80       2.47581  1_556   S
    N7     O80       2.92709      .   S
    Zr67   O81       1.91839      .   S
    N11    O81       2.79527      .   S
    Zr67   O82       2.71051      .   S
    N14    O82       3.08977      .   S
    Zr67   O83       1.91150      .   S
    N11    O83       2.79976      .   S
