# CIF file generated by openbabel 2.4.90, see http://openbabel.sf.net
data_I
_chemical_name_common ''
_cell_length_a 23.047
_cell_length_b 15.562
_cell_length_c 16.219
_cell_angle_alpha 89.978
_cell_angle_beta 89.974
_cell_angle_gamma 90.074
_space_group_name_H-M_alt 'P 1'
_space_group_name_Hall 'P 1'
loop_
    _symmetry_equiv_pos_as_xyz
    x,y,z
loop_
    _atom_site_label
    _atom_site_type_symbol
    _atom_site_fract_x
    _atom_site_fract_y
    _atom_site_fract_z
    _atom_site_occupancy
    P0      P    0.12732   0.81823   0.82009   1.000
    P1      P    0.62725   0.81815   0.82021   1.000
    P2      P    0.15529   0.96783   0.54325   1.000
    P3      P    0.65422   0.96686   0.54328   1.000
    P4      P    0.12272   0.18182   0.32016   1.000
    P5      P    0.62275   0.18185   0.32019   1.000
    P6      P    0.09577   0.03311   0.04320   1.000
    P7      P    0.59575   0.03291   0.04331   1.000
    P8      P    0.37272   0.31823   0.67987   1.000
    P9      P    0.87273   0.31817   0.67996   1.000
    P10     P    0.34457   0.46787   0.95666   1.000
    P11     P    0.84462   0.46784   0.95674   1.000
    P12     P    0.37723   0.68191   0.17977   1.000
    P13     P    0.87731   0.68181   0.17992   1.000
    P14     P    0.40445   0.53341   0.45669   1.000
    P15     P    0.90546   0.53210   0.45676   1.000
    H16     H    0.19457   0.75805   0.74279   1.000
    H17     H    0.69457   0.75813   0.74288   1.000
    H18     H    0.23102   0.04825   0.53461   1.000
    H19     H    0.73041   0.04604   0.53354   1.000
    H20     H    0.11593   0.02669   0.70183   1.000
    H21     H    0.61552   0.02652   0.70199   1.000
    H22     H    0.43569   0.17214   0.74512   1.000
    H23     H    0.93594   0.17198   0.74519   1.000
    H24     H    0.16442   0.96430   0.81152   1.000
    H25     H    0.66405   0.96441   0.81167   1.000
    H26     H    0.09004   0.96297   0.83353   1.000
    H27     H    0.58969   0.96269   0.83383   1.000
    H28     H    0.19751   0.93099   0.67677   1.000
    H29     H    0.69706   0.93140   0.67666   1.000
    H30     H    0.14684   0.85175   0.64309   1.000
    H31     H    0.64662   0.85145   0.64383   1.000
    H32     H    0.04379   0.86815   0.68189   1.000
    H33     H    0.54332   0.86795   0.68243   1.000
    H34     H    0.04624   0.96050   0.61474   1.000
    H35     H    0.54577   0.96005   0.61502   1.000
    H36     H    0.48978   0.87703   0.81521   1.000
    H37     H    0.99018   0.87679   0.81470   1.000
    H38     H    0.41846   0.95606   0.90171   1.000
    H39     H    0.91880   0.95556   0.90134   1.000
    H40     H    0.39505   0.11157   0.86360   1.000
    H41     H    0.89533   0.11114   0.86358   1.000
    H42     H    0.00194   0.10085   0.65717   1.000
    H43     H    0.50162   0.10070   0.65716   1.000
    H44     H    0.05543   0.24185   0.24285   1.000
    H45     H    0.55548   0.24186   0.24286   1.000
    H46     H    0.01967   0.95378   0.03346   1.000
    H47     H    0.51971   0.95343   0.03362   1.000
    H48     H    0.13453   0.97351   0.20190   1.000
    H49     H    0.63452   0.97342   0.20213   1.000
    H50     H    0.31433   0.82828   0.24486   1.000
    H51     H    0.81425   0.82800   0.24491   1.000
    H52     H    0.08588   0.03559   0.31170   1.000
    H53     H    0.58588   0.03562   0.31182   1.000
    H54     H    0.16024   0.03724   0.33374   1.000
    H55     H    0.66024   0.03725   0.33383   1.000
    H56     H    0.05279   0.06795   0.17671   1.000
    H57     H    0.55278   0.06788   0.17678   1.000
    H58     H    0.10293   0.14839   0.14387   1.000
    H59     H    0.60292   0.14827   0.14388   1.000
    H60     H    0.20646   0.13233   0.18228   1.000
    H61     H    0.70649   0.13219   0.18235   1.000
    H62     H    0.20416   0.04028   0.11486   1.000
    H63     H    0.70414   0.04014   0.11493   1.000
    H64     H    0.26023   0.12336   0.31485   1.000
    H65     H    0.76025   0.12312   0.31496   1.000
    H66     H    0.33171   0.04439   0.40114   1.000
    H67     H    0.83164   0.04405   0.40129   1.000
    H68     H    0.35514   0.88895   0.36309   1.000
    H69     H    0.85498   0.88853   0.36322   1.000
    H70     H    0.24829   0.89963   0.15707   1.000
    H71     H    0.74828   0.89949   0.15706   1.000
    H72     H    0.30538   0.25779   0.75708   1.000
    H73     H    0.80541   0.25775   0.75710   1.000
    H74     H    0.26893   0.54814   0.96550   1.000
    H75     H    0.76897   0.54811   0.96552   1.000
    H76     H    0.38425   0.52670   0.79806   1.000
    H77     H    0.88416   0.52665   0.79814   1.000
    H78     H    0.06421   0.67205   0.75495   1.000
    H79     H    0.56433   0.67172   0.75511   1.000
    H80     H    0.33587   0.46429   0.68816   1.000
    H81     H    0.83583   0.46420   0.68827   1.000
    H82     H    0.41031   0.46294   0.66663   1.000
    H83     H    0.91025   0.46292   0.66660   1.000
    C84     C    0.98979   0.20903   0.51202   1.000
    C85     C    0.37688   0.43348   0.70550   1.000
    C86     C    0.87686   0.43343   0.70550   1.000
    C87     C    0.34476   0.42141   0.85132   1.000
    H88     H    0.30221   0.43204   0.82293   1.000
    H89     H    0.80229   0.43176   0.82306   1.000
    H90     H    0.35219   0.35202   0.85662   1.000
    H91     H    0.85241   0.35192   0.85676   1.000
    H92     H    0.45580   0.36795   0.81869   1.000
    H93     H    0.95593   0.36810   0.81861   1.000
    H94     H    0.45343   0.46033   0.88571   1.000
    H95     H    0.95352   0.46047   0.88560   1.000
    H96     H    0.00995   0.37651   0.68623   1.000
    H97     H    0.50996   0.37623   0.68641   1.000
    H98     H    0.08153   0.45524   0.59955   1.000
    H99     H    0.58173   0.45478   0.59989   1.000
    H100    H    0.10499   0.61097   0.63687   1.000
    H101    H    0.60523   0.61049   0.63716   1.000
    H102    H    0.49807   0.60075   0.84306   1.000
    H103    H    0.99805   0.60097   0.84297   1.000
    H104    H    0.44457   0.74227   0.25688   1.000
    H105    H    0.94462   0.74219   0.25707   1.000
    H106    H    0.48074   0.45469   0.46669   1.000
    H107    H    0.98112   0.45183   0.46540   1.000
    H108    H    0.36556   0.47366   0.29815   1.000
    H109    H    0.86589   0.47336   0.29827   1.000
    H110    H    0.18549   0.32817   0.25461   1.000
    H111    H    0.68573   0.32821   0.25486   1.000
    H112    H    0.41392   0.53576   0.18821   1.000
    H113    H    0.91426   0.53583   0.18834   1.000
    H114    H    0.33952   0.53729   0.16643   1.000
    H115    H    0.83984   0.53702   0.16675   1.000
    N116    N    0.11065   0.95823   0.70633   1.000
    N117    N    0.61020   0.95807   0.70650   1.000
    N118    N    0.44786   0.10755   0.76016   1.000
    N119    N    0.94818   0.10743   0.76016   1.000
    N120    N    0.13973   0.04196   0.20654   1.000
    H121    H    0.44723   0.56869   0.32309   1.000
    H122    H    0.94773   0.56855   0.32304   1.000
    H123    H    0.39701   0.64872   0.35607   1.000
    H124    H    0.89748   0.64813   0.35686   1.000
    H125    H    0.29359   0.63210   0.31824   1.000
    H126    H    0.79411   0.63188   0.31880   1.000
    H127    H    0.29590   0.53973   0.38531   1.000
    H128    H    0.79647   0.53936   0.38574   1.000
    H129    H    0.23974   0.62375   0.18580   1.000
    H130    H    0.74021   0.62378   0.18639   1.000
    H131    H    0.16814   0.54513   0.09924   1.000
    H132    H    0.66857   0.54533   0.09970   1.000
    H133    H    0.14461   0.38944   0.13662   1.000
    H134    H    0.64498   0.38961   0.13689   1.000
    H135    H    0.25166   0.39916   0.34251   1.000
    H136    H    0.75193   0.39901   0.34289   1.000
    C137    C    0.12330   0.93350   0.79446   1.000
    C138    C    0.62298   0.93341   0.79469   1.000
    C139    C    0.15484   0.92102   0.64849   1.000
    C140    C    0.65434   0.92082   0.64874   1.000
    C141    C    0.04888   0.93814   0.67876   1.000
    C142    C    0.54844   0.93792   0.67911   1.000
    C143    C    0.00432   0.98306   0.73130   1.000
    C144    C    0.50393   0.98306   0.73153   1.000
    C145    C    0.47841   0.94316   0.80008   1.000
    C146    C    0.97880   0.94296   0.79970   1.000
    C147    C    0.43834   0.98726   0.84868   1.000
    C148    C    0.93870   0.98692   0.84840   1.000
    C149    C    0.42419   0.07106   0.82795   1.000
    C150    C    0.92450   0.07075   0.82786   1.000
    C151    C    0.48644   0.06631   0.71188   1.000
    C152    C    0.98679   0.06634   0.71183   1.000
    C153    C    0.24408   0.73379   0.54466   1.000
    C154    C    0.74394   0.73343   0.54474   1.000
    C155    C    0.26819   0.76607   0.46118   1.000
    C156    C    0.76812   0.76474   0.46102   1.000
    C157    C    0.12772   0.82855   0.25054   1.000
    C158    C    0.62782   0.82837   0.25074   1.000
    C159    C    0.12989   0.72999   0.24247   1.000
    C160    C    0.62991   0.72982   0.24248   1.000
    C161    C    0.23833   0.70040   0.98861   1.000
    C162    C    0.73834   0.70038   0.98865   1.000
    C163    C    0.26037   0.79100   0.01147   1.000
    C164    C    0.76038   0.79097   0.01151   1.000
    C165    C    0.12696   0.06657   0.29465   1.000
    C166    C    0.62696   0.06657   0.29473   1.000
    C167    C    0.09548   0.07895   0.14875   1.000
    C168    C    0.59546   0.07883   0.14881   1.000
    C169    C    0.20147   0.06234   0.17890   1.000
    C170    C    0.70146   0.06221   0.17903   1.000
    C171    C    0.24604   0.01729   0.23131   1.000
    C172    C    0.74601   0.01710   0.23138   1.000
    C173    C    0.27162   0.05724   0.29972   1.000
    C174    C    0.77160   0.05699   0.29982   1.000
    C175    C    0.31177   0.01318   0.34820   1.000
    C176    C    0.81169   0.01285   0.34834   1.000
    C177    C    0.32596   0.92941   0.32748   1.000
    C178    C    0.82582   0.92905   0.32763   1.000
    C179    C    0.26353   0.93405   0.21169   1.000
    C180    C    0.76349   0.93385   0.21173   1.000
    C181    C    0.50596   0.26663   0.04479   1.000
    C182    C    0.00000   0.26663   0.04478   1.000
    C183    C    0.48185   0.23525   0.96107   1.000
    C184    C    0.98186   0.23526   0.96106   1.000
    C185    C    0.12236   0.17175   0.75066   1.000
    C186    C    0.62227   0.17155   0.75074   1.000
    C187    C    0.12019   0.27030   0.74234   1.000
    C188    C    0.62014   0.27011   0.74245   1.000
    C189    C    0.01177   0.29957   0.48877   1.000
    C190    C    0.51199   0.30070   0.48909   1.000
    C191    C    0.48994   0.20980   0.51124   1.000
    O192    O    0.57219   0.71890   0.54160   1.000
    O193    O    0.48221   0.72548   0.59700   1.000
    O194    O    0.98222   0.72572   0.59732   1.000
    O195    O    0.38184   0.63834   0.67903   1.000
    O196    O    0.88053   0.63786   0.67924   1.000
    O197    O    0.37333   0.62942   0.81640   1.000
    O198    O    0.87298   0.62938   0.81668   1.000
    O199    O    0.38014   0.79939   0.83000   1.000
    C200    C    0.84487   0.42128   0.85143   1.000
    C201    C    0.45092   0.43794   0.82170   1.000
    C202    C    0.95099   0.43808   0.82164   1.000
    C203    C    0.49574   0.48273   0.76936   1.000
    C204    C    0.99573   0.48297   0.76922   1.000
    C205    C    0.02136   0.44274   0.70100   1.000
    C206    C    0.52143   0.44244   0.70122   1.000
    C207    C    0.06155   0.48668   0.65233   1.000
    C208    C    0.56171   0.48628   0.65260   1.000
    C209    C    0.07574   0.57060   0.67264   1.000
    C210    C    0.57594   0.57019   0.67292   1.000
    C211    C    0.01326   0.56634   0.78849   1.000
    C212    C    0.51333   0.56608   0.78862   1.000
    C213    C    0.25589   0.23380   0.95529   1.000
    C214    C    0.75591   0.23375   0.95535   1.000
    C215    C    0.23183   0.26607   0.03877   1.000
    C216    C    0.73185   0.26606   0.03881   1.000
    C217    C    0.37253   0.32864   0.24938   1.000
    C218    C    0.87257   0.32843   0.24950   1.000
    C219    C    0.37021   0.23008   0.25755   1.000
    C220    C    0.87024   0.22986   0.25759   1.000
    C221    C    0.26188   0.20049   0.51121   1.000
    C222    C    0.76173   0.19953   0.51111   1.000
    C223    C    0.23994   0.29097   0.48798   1.000
    C224    C    0.73993   0.29041   0.48884   1.000
    C225    C    0.37290   0.56668   0.20538   1.000
    C226    C    0.87321   0.56656   0.20562   1.000
    C227    C    0.40457   0.57934   0.35119   1.000
    C228    C    0.90514   0.57881   0.35140   1.000
    C229    C    0.29856   0.56212   0.32129   1.000
    C230    C    0.79905   0.56189   0.32176   1.000
    C231    C    0.25392   0.51724   0.26882   1.000
    C232    C    0.75432   0.51715   0.26929   1.000
    C233    C    0.22830   0.55752   0.20060   1.000
    C234    C    0.72873   0.55754   0.20114   1.000
    C235    C    0.18809   0.51366   0.15201   1.000
    C236    C    0.68850   0.51379   0.15245   1.000
    C237    C    0.17387   0.42974   0.17236   1.000
    C238    C    0.67424   0.42985   0.17269   1.000
    C239    C    0.23639   0.43385   0.28807   1.000
    C240    C    0.73672   0.43377   0.28847   1.000
    C241    C    0.99407   0.76665   0.45534   1.000
    C242    C    0.49412   0.76616   0.45522   1.000
    C243    C    0.01814   0.73522   0.53905   1.000
    C244    C    0.51810   0.73389   0.53871   1.000
    C245    C    0.37773   0.67176   0.74924   1.000
    C246    C    0.87709   0.67156   0.74941   1.000
    C247    C    0.37989   0.77032   0.75748   1.000
    C248    C    0.87974   0.77012   0.75742   1.000
    C249    C    0.48845   0.80019   0.01110   1.000
    C250    C    0.98846   0.80032   0.01109   1.000
    C251    C    0.01029   0.70949   0.98876   1.000
    C252    C    0.51029   0.70939   0.98878   1.000
    N253    N    0.63972   0.04189   0.20663   1.000
    N254    N    0.30218   0.89285   0.25985   1.000
    N255    N    0.80209   0.89258   0.25993   1.000
    N256    N    0.38932   0.45823   0.79369   1.000
    N257    N    0.88934   0.45822   0.79373   1.000
    N258    N    0.05197   0.60741   0.74013   1.000
    N259    N    0.55212   0.60706   0.74033   1.000
    N260    N    0.36027   0.54205   0.29356   1.000
    N261    N    0.86072   0.54180   0.29383   1.000
    N262    N    0.19766   0.39285   0.23979   1.000
    N263    N    0.69797   0.39288   0.24010   1.000
    O264    O    0.08241   0.76993   0.77076   1.000
    O265    O    0.58241   0.76976   0.77083   1.000
    O266    O    0.12511   0.81854   0.91280   1.000
    O267    O    0.62509   0.81846   0.91299   1.000
    O268    O    0.19247   0.78904   0.79511   1.000
    O269    O    0.69244   0.78914   0.79519   1.000
    O270    O    0.11992   0.04896   0.54125   1.000
    O271    O    0.61951   0.04861   0.54124   1.000
    O272    O    0.13433   0.89499   0.48870   1.000
    O273    O    0.63239   0.89392   0.48949   1.000
    O274    O    0.22198   0.98482   0.52460   1.000
    O275    O    0.72094   0.98275   0.52398   1.000
    O276    O    0.18959   0.72210   0.54839   1.000
    O277    O    0.68941   0.72215   0.54858   1.000
    O278    O    0.28047   0.72255   0.60201   1.000
    O279    O    0.78032   0.72245   0.60214   1.000
    O280    O    0.32230   0.78108   0.45830   1.000
    O281    O    0.82242   0.77805   0.45773   1.000
    O282    O    0.23236   0.77455   0.40270   1.000
    O283    O    0.73224   0.77420   0.40275   1.000
    O284    O    0.13198   0.86218   0.32064   1.000
    O285    O    0.63209   0.86182   0.32092   1.000
    O286    O    0.12319   0.87078   0.18335   1.000
    O287    O    0.62333   0.87071   0.18360   1.000
    O288    O    0.13015   0.70085   0.16993   1.000
    O289    O    0.63016   0.70078   0.16991   1.000
    O290    O    0.13249   0.68854   0.31015   1.000
    O291    O    0.63249   0.68824   0.31008   1.000
    O292    O    0.27578   0.65082   0.95464   1.000
    O293    O    0.77580   0.65079   0.95471   1.000
    O294    O    0.18709   0.68131   0.00717   1.000
    O295    O    0.68710   0.68128   0.00721   1.000
    O296    O    0.22470   0.83708   0.05195   1.000
    O297    O    0.72471   0.83706   0.05196   1.000
    O298    O    0.31123   0.81087   0.99067   1.000
    O299    O    0.81124   0.81086   0.99071   1.000
    O300    O    0.16759   0.23021   0.27073   1.000
    O301    O    0.66762   0.23021   0.27074   1.000
    O302    O    0.12489   0.18146   0.41293   1.000
    O303    O    0.62494   0.18155   0.41297   1.000
    O304    O    0.05754   0.21088   0.29519   1.000
    O305    O    0.55758   0.21089   0.29521   1.000
    O306    O    0.13055   0.95144   0.04109   1.000
    O307    O    0.63058   0.95129   0.04122   1.000
    O308    O    0.11757   0.10622   0.98952   1.000
    O309    O    0.61753   0.10599   0.98950   1.000
    O310    O    0.02908   0.01710   0.02392   1.000
    O311    O    0.52908   0.01676   0.02398   1.000
    O312    O    0.06050   0.27788   0.04858   1.000
    O313    O    0.56050   0.27783   0.04860   1.000
    O314    O    0.46955   0.27768   0.10217   1.000
    O315    O    0.96958   0.27763   0.10219   1.000
    O316    O    0.42755   0.22191   0.95782   1.000
    O317    O    0.92757   0.22190   0.95782   1.000
    O318    O    0.01775   0.22582   0.90278   1.000
    O319    O    0.51776   0.22578   0.90279   1.000
    O320    O    0.11798   0.13837   0.82089   1.000
    O321    O    0.61796   0.13812   0.82096   1.000
    O322    O    0.12703   0.12941   0.68358   1.000
    O323    O    0.62683   0.12923   0.68362   1.000
    O324    O    0.11997   0.29933   0.66973   1.000
    O325    O    0.61990   0.29914   0.66986   1.000
    O326    O    0.11754   0.31188   0.80990   1.000
    O327    O    0.61756   0.31169   0.81002   1.000
    O328    O    0.47453   0.35092   0.45595   1.000
    O329    O    0.97432   0.34902   0.45467   1.000
    O330    O    0.06300   0.31879   0.50715   1.000
    O331    O    0.56336   0.31922   0.50737   1.000
    O332    O    0.02561   0.16295   0.55217   1.000
    O333    O    0.52546   0.16341   0.55168   1.000
    O334    O    0.43923   0.18979   0.48990   1.000
    O335    O    0.93881   0.18917   0.49193   1.000
    O336    O    0.41757   0.26994   0.72922   1.000
    O337    O    0.91760   0.26989   0.72926   1.000
    O338    O    0.37494   0.31858   0.58700   1.000
    O339    O    0.87492   0.31859   0.58718   1.000
    O340    O    0.30752   0.28900   0.70486   1.000
    O341    O    0.80753   0.28894   0.70490   1.000
    O342    O    0.38006   0.54902   0.95873   1.000
    O343    O    0.88011   0.54898   0.95883   1.000
    O344    O    0.36555   0.39491   0.01100   1.000
    O345    O    0.86557   0.39488   0.01116   1.000
    O346    O    0.27792   0.48474   0.97540   1.000
    O347    O    0.77796   0.48470   0.97540   1.000
    O348    O    0.31037   0.22208   0.95157   1.000
    O349    O    0.81038   0.22208   0.95160   1.000
    O350    O    0.21950   0.22265   0.89790   1.000
    O351    O    0.71950   0.22255   0.89799   1.000
    O352    O    0.17775   0.28109   0.04165   1.000
    O353    O    0.67776   0.28107   0.04169   1.000
    O354    O    0.26767   0.27448   0.09727   1.000
    O355    O    0.76769   0.27450   0.09731   1.000
    O356    O    0.36831   0.36221   0.17922   1.000
    O357    O    0.86854   0.36205   0.17934   1.000
    O358    O    0.37715   0.37090   0.31651   1.000
    O359    O    0.87702   0.37063   0.31668   1.000
    O360    O    0.36993   0.20100   0.33013   1.000
    O361    O    0.86999   0.20067   0.33014   1.000
    O362    O    0.36748   0.18857   0.18994   1.000
    O363    O    0.86749   0.18844   0.18994   1.000
    O364    O    0.22431   0.15098   0.54530   1.000
    O365    O    0.72415   0.14951   0.54448   1.000
    O366    O    0.31309   0.18132   0.49284   1.000
    O367    O    0.81302   0.18073   0.49270   1.000
    O368    O    0.27580   0.33706   0.44768   1.000
    O369    O    0.77563   0.33662   0.44836   1.000
    O370    O    0.18902   0.31082   0.50824   1.000
    O371    O    0.68924   0.31052   0.51006   1.000
    O372    O    0.33243   0.73027   0.22917   1.000
    O373    O    0.83244   0.73009   0.22925   1.000
    O374    O    0.37506   0.68154   0.08700   1.000
    O375    O    0.87510   0.68145   0.08713   1.000
    O376    O    0.44246   0.71096   0.20474   1.000
    O377    O    0.94250   0.71104   0.20484   1.000
    O378    O    0.36980   0.45150   0.45879   1.000
    O379    O    0.86999   0.45095   0.45885   1.000
    O380    O    0.38247   0.60624   0.51042   1.000
    O381    O    0.88455   0.60495   0.51126   1.000
    O382    O    0.47118   0.51792   0.47598   1.000
    O383    O    0.97213   0.51521   0.47534   1.000
    O384    O    0.43964   0.77790   0.45148   1.000
    O385    O    0.93958   0.77791   0.45149   1.000
    O386    O    0.03052   0.77768   0.39790   1.000
    O387    O    0.53054   0.77735   0.39784   1.000
    O388    O    0.07241   0.72184   0.54200   1.000
    O389    O    0.88020   0.79931   0.82994   1.000
    O390    O    0.38251   0.81189   0.68987   1.000
    O391    O    0.88252   0.81149   0.68970   1.000
    O392    O    0.02599   0.85031   0.04447   1.000
    O393    O    0.52600   0.85010   0.04468   1.000
    O394    O    0.43720   0.81907   0.99268   1.000
    O395    O    0.93718   0.81911   0.99268   1.000
    O396    O    0.47460   0.66323   0.94830   1.000
    O397    O    0.97462   0.66328   0.94833   1.000
    O398    O    0.06100   0.68944   0.00995   1.000
    O399    O    0.56100   0.68934   0.00995   1.000
loop_
    _geom_bond_atom_site_label_1
    _geom_bond_atom_site_label_2
    _geom_bond_distance
    _geom_bond_site_symmetry_2
    _ccdc_geom_bond_type
    O294   C161      1.25385  1_554   S
    O295   C162      1.25384  1_554   S
    O399   C252      1.25791  1_554   S
    O398   C251      1.25799  1_554   S
    O344   P10       1.51690  1_554   S
    C250   O392      1.28273  1_655   S
    C250   C251      1.54402  1_654   S
    C250   O395      1.25419  1_554   S
    C249   O393      1.28363      .   S
    C249   C252      1.54370  1_554   S
    C249   O394      1.25388  1_554   S
    O345   P11       1.51728  1_554   S
    C163   O296      1.27381      .   S
    C163   C161      1.54332  1_554   S
    C163   O298      1.25787  1_554   S
    C164   O297      1.27379      .   S
    C164   C162      1.54325  1_554   S
    C164   O299      1.25784  1_554   S
    O310   H46       1.02048  1_545   S
    O310   P6        1.58800      .   S
    O311   H47       1.02071  1_545   S
    O311   P7        1.58802      .   S
    C215   O352      1.26931      .   S
    C215   O354      1.26496      .   S
    C215   C213      1.54712  1_554   S
    C216   O353      1.26934      .   S
    C216   O355      1.26510      .   S
    C216   C214      1.54695  1_554   S
    O306   P6        1.50386  1_565   S
    O307   P7        1.50386  1_565   S
    P6     C167      1.85485      .   S
    P6     O308      1.51738  1_554   S
    P7     C168      1.85459      .   S
    P7     O309      1.51804  1_554   S
    C182   O312      1.40650      .   S
    C182   O315      1.17798  1_455   S
    C182   C184      1.50245  1_454   S
    C181   O313      1.27040      .   S
    C181   O314      1.26485      .   S
    C181   C183      1.54647  1_554   S
    O374   P12       1.50550      .   S
    O375   P13       1.50585      .   S
    H131   C235      1.08832      .   S
    H132   C236      1.08833      .   S
    H62    C169      1.09583      .   S
    H63    C170      1.09675      .   S
    H133   C237      1.08796      .   S
    H134   C238      1.08787      .   S
    H58    C167      1.09682      .   S
    H59    C168      1.09684      .   S
    C167   H56       1.09637      .   S
    C167   N120      1.50066      .   S
    C168   H57       1.09632      .   S
    C168   N253      1.50073      .   S
    C235   C237      1.38580      .   S
    C235   C233      1.39477      .   S
    C236   C238      1.38580      .   S
    C236   C234      1.39514      .   S
    H71    C180      1.09324      .   S
    H70    C179      1.09328      .   S
    H114   C225      1.09540      .   S
    H115   C226      1.09538      .   S
    O289   C160      1.26095      .   S
    O288   C159      1.26104      .   S
    C237   N262      1.35171      .   S
    C238   N263      1.35142      .   S
    C169   H60       1.09638      .   S
    C169   N120      1.52444      .   S
    C169   C171      1.50713      .   S
    C170   H61       1.09637      .   S
    C170   N253      1.52425      .   S
    C170   C172      1.50676      .   S
    O356   C217      1.25580      .   S
    O357   C218      1.25579      .   S
    P12    O376      1.62095      .   S
    P12    C225      1.84322      .   S
    P12    O372      1.50864      .   S
    P13    O377      1.62078      .   S
    P13    C226      1.84352      .   S
    P13    O373      1.50854      .   S
    O286   C157      1.27674      .   S
    O287   C158      1.27686      .   S
    H129   C233      1.09014      .   S
    H130   C234      1.09029      .   S
    H112   C225      1.09707      .   S
    H113   C226      1.09708      .   S
    O363   C220      1.27431      .   S
    O362   C219      1.27440      .   S
    C233   C231      1.40236      .   S
    C234   C232      1.40206      .   S
    H48    N120      1.07445  1_565   S
    H49    N253      1.07454  1_565   S
    O376   H104      0.97734      .   S
    O377   H105      0.97738      .   S
    C225   N260      1.50864      .   S
    C226   N261      1.50901      .   S
    N120   C165      1.50861      .   S
    N253   C166      1.50869      .   S
    C179   C171      1.39411  1_565   S
    C179   N254      1.34781      .   S
    C180   C172      1.39422  1_565   S
    C180   N255      1.34792      .   S
    C171   C173      1.40192      .   S
    C172   C174      1.40187      .   S
    N262   H110      1.07174      .   S
    N262   C239      1.34778      .   S
    N263   H111      1.07176      .   S
    N263   C240      1.34820      .   S
    C159   C157      1.54031      .   S
    C159   O290      1.27445      .   S
    C160   C158      1.54037      .   S
    C160   O291      1.27433      .   S
    H44    O304      0.97734      .   S
    H45    O305      0.97740      .   S
    H50    N254      1.07152      .   S
    H51    N255      1.07179      .   S
    C217   C219      1.54041      .   S
    C217   O358      1.27666      .   S
    C218   C220      1.54041      .   S
    C218   O359      1.27654      .   S
    C157   O284      1.25567      .   S
    C158   O285      1.25567      .   S
    C219   O360      1.26101      .   S
    C220   O361      1.26114      .   S
    N254   C177      1.35173      .   S
    N255   C178      1.35175      .   S
    C231   C239      1.39389      .   S
    C231   C229      1.50667      .   S
    C232   C240      1.39397      .   S
    C232   C230      1.50698      .   S
    O300   P4        1.50862      .   S
    O301   P5        1.50861      .   S
    C239   H135      1.09335      .   S
    C240   H136      1.09315      .   S
    N260   H108      1.07406      .   S
    N260   C229      1.52418      .   S
    N260   C227      1.50078      .   S
    N261   H109      1.07428      .   S
    N261   C230      1.52429      .   S
    N261   C228      1.50052      .   S
    C165   H52       1.09709      .   S
    C165   P4        1.84345      .   S
    C165   H54       1.09536      .   S
    C166   H53       1.09713      .   S
    C166   P5        1.84364      .   S
    C166   H55       1.09544      .   S
    O304   P4        1.62083      .   S
    O305   P5        1.62078      .   S
    C173   H64       1.09023      .   S
    C173   C175      1.39511      .   S
    C174   H65       1.09027      .   S
    C174   C176      1.39529      .   S
    H125   C229      1.09634      .   S
    H126   C230      1.09637      .   S
    P4     O302      1.50549      .   S
    P5     O303      1.50567      .   S
    C229   H127      1.09676      .   S
    C230   H128      1.09676      .   S
    H122   C228      1.09581      .   S
    H121   C227      1.09634      .   S
    C177   C175      1.38596  1_565   S
    C177   H68       1.08788      .   S
    C178   C176      1.38597  1_565   S
    C178   H69       1.08800      .   S
    C175   H66       1.08840      .   S
    C176   H67       1.08838      .   S
    C227   H123      1.09683      .   S
    C227   P14       1.85411      .   S
    C228   H124      1.09700      .   S
    C228   P15       1.85677      .   S
    O387   C242      1.26491      .   S
    O386   C241      1.26576  1_455   S
    O282   C155      1.26488      .   S
    O283   C156      1.26475      .   S
    O368   C223      1.27374      .   S
    O369   C224      1.27398      .   S
    O384   C242      1.27040      .   S
    O385   C241      1.26970      .   S
    O329   C189      1.28252  1_655   S
    C242   C244      1.54672      .   S
    C241   C243      1.54635  1_655   S
    O328   C190      1.28329      .   S
    P14    O378      1.50366      .   S
    P14    O382      1.58840      .   S
    P14    O380      1.51731      .   S
    P15    O379      1.50392      .   S
    P15    O383      1.58804      .   S
    P15    O381      1.51683      .   S
    O281   C156      1.26931      .   S
    O280   C155      1.26941      .   S
    C156   C154      1.54593      .   S
    C155   C153      1.54668      .   S
    H107   O383      1.02096      .   S
    H106   O382      1.01992      .   S
    C223   O370      1.25764      .   S
    C223   C221      1.54330      .   S
    O272   P2        1.51687      .   S
    C189   O330      1.25374      .   S
    C189   C84       1.54321  1_455   S
    C224   O371      1.25762      .   S
    C224   C222      1.54426      .   S
    C190   O331      1.25394      .   S
    C190   C191      1.54471      .   S
    O273   P3        1.51733      .   S
    O334   C191      1.25794      .   S
    O335   C84       1.25761      .   S
    O367   C222      1.25393      .   S
    O366   C221      1.25360      .   S
    C222   O365      1.28314      .   S
    C221   O364      1.28305      .   S
    C191   O333      1.27405      .   S
    C84    O332      1.27345  1_655   S
    O275   H19       1.02053  1_565   S
    O275   P3        1.58810      .   S
    O274   H18       1.02162  1_565   S
    O274   P2        1.58822      .   S
    C244   O192      1.26934      .   S
    C244   O193      1.26261      .   S
    C243   O388      1.26904      .   S
    C243   O194      1.26459  1_455   S
    O271   P3        1.50389  1_545   S
    O270   P2        1.50422  1_545   S
    P2     C139      1.85556      .   S
    P3     C140      1.85422      .   S
    C153   O276      1.27030      .   S
    C153   O278      1.26492      .   S
    C154   O277      1.27034      .   S
    C154   O279      1.26489      .   S
    O338   P8        1.50711      .   S
    O339   P9        1.50563      .   S
    H98    C207      1.08840      .   S
    H99    C208      1.08832      .   S
    H34    C141      1.09670      .   S
    H35    C142      1.09673      .   S
    H100   C209      1.08806      .   S
    H101   C210      1.08795      .   S
    H30    C139      1.09692      .   S
    H31    C140      1.09685      .   S
    C139   H28       1.09631      .   S
    C139   N116      1.50115      .   S
    C140   H29       1.09628      .   S
    C140   N117      1.49970      .   S
    C207   C209      1.38580      .   S
    C207   C205      1.39488      .   S
    C208   C210      1.38584      .   S
    C208   C206      1.39519      .   S
    H43    C151      1.09333      .   S
    H42    C152      1.09322  1_455   S
    H83    C86       1.09513      .   S
    H82    C85       1.09541      .   S
    O324   C187      1.26122      .   S
    O325   C188      1.26090      .   S
    C209   N258      1.35174      .   S
    C210   N259      1.35162      .   S
    C141   H32       1.09636      .   S
    C141   N116      1.52442      .   S
    C141   C143      1.50695      .   S
    O195   C245      1.25568      .   S
    C142   H33       1.09637      .   S
    C142   N117      1.52377      .   S
    C142   C144      1.50657      .   S
    O196   C246      1.25578      .   S
    P8     O340      1.62073      .   S
    P8     C85       1.84363      .   S
    P8     O336      1.50869      .   S
    P9     O341      1.62056      .   S
    P9     C86       1.84334      .   S
    P9     O337      1.50851      .   S
    O322   C185      1.27676      .   S
    O323   C186      1.27694      .   S
    H96    C205      1.09018      .   S
    H97    C206      1.09028      .   S
    H80    C85       1.09711      .   S
    H81    C86       1.09678      .   S
    O391   C248      1.27445      .   S
    O390   C247      1.27432      .   S
    C205   C204      1.40222  1_455   S
    C206   C203      1.40206      .   S
    H20    N116      1.07468  1_545   S
    H21    N117      1.07451  1_545   S
    O340   H72       0.97733      .   S
    O341   H73       0.97698      .   S
    C85    N256      1.50894      .   S
    C86    N257      1.50991      .   S
    N116   C137      1.50878      .   S
    N117   C138      1.50999      .   S
    C152   C143      1.39408  1_645   S
    C152   N119      1.34784      .   S
    C151   C144      1.39421  1_545   S
    C151   N118      1.34788      .   S
    C143   C146      1.40153  1_455   S
    C144   C145      1.40197      .   S
    N258   H78       1.07192      .   S
    N258   C211      1.34797      .   S
    N259   H79       1.07169      .   S
    N259   C212      1.34795      .   S
    C187   C185      1.54031      .   S
    C187   O326      1.27428      .   S
    C188   C186      1.54037      .   S
    C188   O327      1.27438      .   S
    H16    O268      0.97740      .   S
    H17    O269      0.97745      .   S
    H22    N118      1.07193      .   S
    H23    N119      1.07162      .   S
    C245   C247      1.54037      .   S
    C245   O197      1.27676      .   S
    C246   C248      1.54047      .   S
    C246   O198      1.27649      .   S
    C185   O320      1.25575      .   S
    C186   O321      1.25576      .   S
    C248   O389      1.26112      .   S
    C247   O199      1.26036      .   S
    N118   C149      1.35170      .   S
    N119   C150      1.35176      .   S
    C204   C211      1.39392  1_655   S
    C204   C202      1.50695      .   S
    C203   C212      1.39393      .   S
    C203   C201      1.50681      .   S
    O264   P0        1.50859      .   S
    O265   P1        1.50864      .   S
    C211   H103      1.09305  1_455   S
    C212   H102      1.09322      .   S
    N256   H76       1.07441      .   S
    N256   C201      1.52433      .   S
    N256   C87       1.50116      .   S
    N257   H77       1.07413      .   S
    N257   C202      1.52434      .   S
    N257   C200      1.50128      .   S
    C137   H24       1.09716      .   S
    C137   P0        1.84369      .   S
    C137   H26       1.09548      .   S
    C138   H25       1.09709      .   S
    C138   P1        1.84352      .   S
    C138   H27       1.09539      .   S
    O268   P0        1.62069      .   S
    O269   P1        1.62080      .   S
    C146   H37       1.09034      .   S
    C146   C148      1.39541      .   S
    C145   H36       1.09023      .   S
    C145   C147      1.39514      .   S
    H93    C202      1.09637      .   S
    H92    C201      1.09633      .   S
    P0     O266      1.50451      .   S
    P1     O267      1.50562      .   S
    C202   H95       1.09597      .   S
    C201   H94       1.09672      .   S
    H88    C87       1.09635      .   S
    H89    C200      1.09637      .   S
    C150   C148      1.38601  1_545   S
    C150   H41       1.08802      .   S
    C149   C147      1.38602  1_545   S
    C149   H40       1.08802      .   S
    C148   H39       1.08833      .   S
    C147   H38       1.08832      .   S
    C87    H90       1.09689      .   S
    C87    P10       1.85549      .   S
    C200   H91       1.09687      .   S
    C200   P11       1.85557      .   S
    O350   C213      1.26507      .   S
    O351   C214      1.26507      .   S
    O318   C184      1.26445  1_455   S
    O319   C183      1.26490      .   S
    O396   C252      1.27400      .   S
    O397   C251      1.27369  1_655   S
    O348   C213      1.27025      .   S
    O349   C214      1.27021      .   S
    O292   C161      1.28287      .   S
    O293   C162      1.28286      .   S
    P10    O342      1.50406      .   S
    P10    O346      1.58780      .   S
    P11    O343      1.50401      .   S
    P11    O347      1.58783      .   S
    O317   C184      1.26924      .   S
    O316   C183      1.26926      .   S
    H74    O346      1.02120      .   S
    H75    O347      1.02117      .   S
