# CIF file generated by openbabel 2.4.90, see http://openbabel.sf.net
data_I
_chemical_name_common ''
_cell_length_a 23.047
_cell_length_b 15.562
_cell_length_c 16.219
_cell_angle_alpha 89.978
_cell_angle_beta 89.974
_cell_angle_gamma 90.074
_space_group_name_H-M_alt 'P 1'
_space_group_name_Hall 'P 1'
loop_
    _symmetry_equiv_pos_as_xyz
    x,y,z
loop_
    _atom_site_label
    _atom_site_type_symbol
    _atom_site_fract_x
    _atom_site_fract_y
    _atom_site_fract_z
    _atom_site_occupancy
    N0      N    0.17694   0.04442   0.22269   1.000
    N1      N    0.67693   0.04427   0.22277   1.000
    N2      N    0.62078   0.21997   0.74628   1.000
    N3      N    0.07345   0.95590   0.72271   1.000
    N4      N    0.57303   0.95570   0.72285   1.000
    N5      N    0.37924   0.72018   0.75367   1.000
    N6      N    0.50613   0.74995   0.49698   1.000
    N7      N    0.00616   0.75084   0.49718   1.000
    N8      N    0.87884   0.71995   0.75373   1.000
    N9      N    0.82347   0.54424   0.27753   1.000
    N10     N    0.32304   0.54460   0.27730   1.000
    N11     N    0.25616   0.75002   0.50287   1.000
    N12     N    0.75608   0.74917   0.50283   1.000
    N13     N    0.92657   0.45586   0.77749   1.000
    N14     N    0.42658   0.45576   0.77753   1.000
    N15     N    0.12924   0.78015   0.24618   1.000
    N16     N    0.49386   0.25085   0.00287   1.000
    N17     N    0.12084   0.22017   0.74618   1.000
    N18     N    0.74960   0.74522   0.00079   1.000
    N19     N    0.62930   0.77996   0.24629   1.000
    N20     N    0.99288   0.25085   0.00287   1.000
    N21     N    0.50075   0.25564   0.50087   1.000
    N22     N    0.00055   0.25475   0.50112   1.000
    N23     N    0.99959   0.75532   0.99921   1.000
    N24     N    0.49959   0.75522   0.99925   1.000
    N25     N    0.24958   0.74524   0.00075   1.000
    N26     N    0.24383   0.25003   0.99708   1.000
    N27     N    0.74385   0.25000   0.99713   1.000
    N28     N    0.37093   0.28023   0.25379   1.000
    N29     N    0.87098   0.28001   0.25386   1.000
    N30     N    0.25067   0.24527   0.49888   1.000
    N31     N    0.75062   0.24455   0.49926   1.000
    Zr32    Zr   0.88173   0.73169   0.56628   1.000
    O33     O    0.86752   0.66898   0.48722   1.000
    Zr34    Zr   0.13189   0.76822   0.43366   1.000
    O35     O    0.11758   0.83098   0.51280   1.000
    Zr36    Zr   0.12460   0.20078   0.55068   1.000
    O37     O    0.11123   0.12058   0.59251   1.000
    O38     O    0.13772   0.15928   0.45146   1.000
    Zr39    Zr   0.37562   0.70081   0.94917   1.000
    O40     O    0.38891   0.62057   0.90746   1.000
    O41     O    0.36240   0.65935   0.04843   1.000
    Zr42    Zr   0.87563   0.70081   0.94928   1.000
    O43     O    0.88893   0.62059   0.90753   1.000
    O44     O    0.86253   0.65925   0.04857   1.000
    Zr45    Zr   0.12563   0.79959   0.05070   1.000
    O46     O    0.13907   0.87978   0.09250   1.000
    O47     O    0.11252   0.84104   0.95146   1.000
    Zr48    Zr   0.63170   0.76740   0.43370   1.000
    O49     O    0.61712   0.83029   0.51296   1.000
    Zr50    Zr   0.11829   0.23270   0.93364   1.000
    O51     O    0.13286   0.16982   0.01289   1.000
    Zr52    Zr   0.36810   0.26825   0.06636   1.000
    O53     O    0.38240   0.33096   0.98723   1.000
    Zr54    Zr   0.87455   0.29910   0.44943   1.000
    O55     O    0.88760   0.34072   0.54866   1.000
    O56     O    0.86121   0.37936   0.40763   1.000
    Zr57    Zr   0.62564   0.79949   0.05085   1.000
    O58     O    0.63908   0.87966   0.09263   1.000
    O59     O    0.61242   0.84091   0.95162   1.000
    Zr60    Zr   0.86814   0.26821   0.06600   1.000
    O61     O    0.88243   0.33095   0.98702   1.000
    Zr62    Zr   0.38172   0.73272   0.56626   1.000
    O63     O    0.36714   0.66988   0.48704   1.000
    Zr64    Zr   0.62451   0.20049   0.55080   1.000
    O65     O    0.63767   0.15907   0.45156   1.000
    O66     O    0.61101   0.12031   0.59262   1.000
    Zr67    Zr   0.37477   0.29978   0.44920   1.000
    O68     O    0.38774   0.34113   0.54851   1.000
    O69     O    0.36121   0.37995   0.40742   1.000
    Zr70    Zr   0.61830   0.23254   0.93373   1.000
    O71     O    0.63286   0.16966   0.01296   1.000
    O72     O    0.57729   0.23953   0.95626   1.000
    O73     O    0.40960   0.26159   0.04594   1.000
    O74     O    0.37666   0.70735   0.88455   1.000
    O75     O    0.38116   0.72863   0.62789   1.000
    O76     O    0.90938   0.26156   0.04572   1.000
    O77     O    0.07704   0.23964   0.95620   1.000
    O78     O    0.16665   0.78095   0.03557   1.000
    O79     O    0.08385   0.78481   0.03489   1.000
    O80     O    0.12666   0.79301   0.11531   1.000
    O81     O    0.83386   0.71567   0.96509   1.000
    O82     O    0.66667   0.78088   0.03568   1.000
    O83     O    0.63117   0.77149   0.37207   1.000
    O84     O    0.62670   0.79289   0.11545   1.000
    O85     O    0.82718   0.26116   0.04359   1.000
    O86     O    0.65973   0.23932   0.95409   1.000
    O87     O    0.37366   0.29317   0.38461   1.000
    O88     O    0.36878   0.27214   0.12799   1.000
    O89     O    0.41665   0.71945   0.96435   1.000
    O90     O    0.58386   0.78470   0.03501   1.000
    O91     O    0.33385   0.71567   0.96500   1.000
    O92     O    0.41653   0.28507   0.46508   1.000
    O93     O    0.58356   0.21938   0.53566   1.000
    O94     O    0.86883   0.27204   0.12780   1.000
    O95     O    0.87353   0.29264   0.38479   1.000
    O96     O    0.16638   0.21567   0.53474   1.000
    O97     O    0.33370   0.28108   0.46425   1.000
    O98     O    0.91665   0.71949   0.96442   1.000
    O99     O    0.08355   0.21928   0.53566   1.000
    O100    O    0.91630   0.28426   0.46534   1.000
    O101    O    0.84027   0.73838   0.54587   1.000
    O102    O    0.92273   0.73899   0.54377   1.000
    O103    O    0.88098   0.72788   0.62792   1.000
    O104    O    0.66631   0.21520   0.53497   1.000
    O105    O    0.83354   0.28041   0.46452   1.000
    O106    O    0.32715   0.26120   0.04380   1.000
    O107    O    0.15971   0.23943   0.95402   1.000
    O108    O    0.67269   0.76044   0.45623   1.000
    O109    O    0.09040   0.76157   0.45408   1.000
    O110    O    0.12352   0.20733   0.61530   1.000
    O111    O    0.13127   0.77209   0.37201   1.000
    O112    O    0.17284   0.76118   0.45620   1.000
    O113    O    0.87656   0.70729   0.88465   1.000
    O114    O    0.59027   0.76063   0.45402   1.000
    O115    O    0.42272   0.73940   0.54369   1.000
    O116    O    0.61885   0.22845   0.87209   1.000
    O117    O    0.62343   0.20707   0.61541   1.000
    O118    O    0.34029   0.73943   0.54590   1.000
    O119    O    0.11886   0.22862   0.87200   1.000
loop_
    _geom_bond_atom_site_label_1
    _geom_bond_atom_site_label_2
    _geom_bond_distance
    _geom_bond_site_symmetry_2
    _ccdc_geom_bond_type
    Zr32   O33       1.64451      .   S
    N9     O33       4.04571      .   S
    Zr34   O35       1.64675      .   S
    N3     O35       4.05100      .   S
    Zr36   O37       1.45294      .   S
    N3     O37       3.43132  1_565   S
    Zr36   O38       1.76037      .   S
    N0     O38       4.21724      .   S
    Zr39   O40       1.45333      .   S
    N14    O40       3.43229      .   S
    Zr39   O41       1.76041  1_556   S
    N10    O41       4.21639      .   S
    Zr42   O43       1.45339      .   S
    N13    O43       3.43238      .   S
    Zr42   O44       1.76109  1_556   S
    N9     O44       4.21797      .   S
    Zr45   O46       1.45352      .   S
    N0     O46       3.43305  1_545   S
    Zr45   O47       1.76010  1_554   S
    N3     O47       4.21589      .   S
    Zr48   O49       1.65069      .   S
    N4     O49       4.05423      .   S
    Zr50   O51       1.65007  1_556   S
    N0     O51       4.05252      .   S
    Zr52   O53       1.64495  1_554   S
    N14    O53       4.04513      .   S
    Zr54   O55       1.76104      .   S
    N13    O55       4.21840      .   S
    Zr54   O56       1.45428      .   S
    N9     O56       3.43449      .   S
    Zr57   O58       1.45308      .   S
    N1     O58       3.43201  1_545   S
    Zr57   O59       1.76038  1_554   S
    N4     O59       4.21713      .   S
    Zr60   O61       1.64338  1_554   S
    N13    O61       4.04328      .   S
    Zr62   O63       1.64939      .   S
    N10    O63       4.05082      .   S
    Zr64   O65       1.76034      .   S
    N1     O65       4.21736      .   S
    Zr64   O66       1.45324      .   S
    N4     O66       3.43193  1_565   S
    Zr67   O68       1.76022      .   S
    N14    O68       4.21727      .   S
    Zr67   O69       1.45387      .   S
    N10    O69       3.43470      .   S
    Zr70   O71       1.64986  1_556   S
    N1     O71       4.05240      .   S
    N16    O72       2.07359  1_554   S
    Zr70   O72       1.01907      .   S
    N16    O73       2.07052      .   S
    Zr52   O73       1.01735      .   S
    N5     O74       2.13281      .   S
    Zr39   O74       1.05325      .   S
    N5     O75       2.04472      .   S
    Zr62   O75       1.00159      .   S
    N20    O76       2.05271      .   S
    Zr60   O76       1.01103      .   S
    N20    O77       2.08932  1_654   S
    Zr50   O77       1.02430      .   S
    Zr45   O78       1.01917      .   S
    N25    O78       2.06953      .   S
    Zr45   O79       1.02245      .   S
    N23    O79       2.07744  1_656   S
    Zr45   O80       1.05319      .   S
    N15    O80       2.13274      .   S
    N18    O81       2.07841  1_554   S
    Zr42   O81       1.02294      .   S
    N18    O82       2.06962      .   S
    Zr57   O82       1.01919      .   S
    N19    O83       2.04476      .   S
    Zr48   O83       1.00163      .   S
    N19    O84       2.13242      .   S
    Zr57   O84       1.05299      .   S
    N27    O85       2.07055  1_556   S
    Zr60   O85       1.01756      .   S
    N27    O86       2.06731      .   S
    Zr70   O86       1.01580      .   S
    N28    O87       2.13238      .   S
    Zr67   O87       1.05296      .   S
    N28    O88       2.04480      .   S
    Zr52   O88       1.00163      .   S
    N24    O89       2.06953      .   S
    Zr39   O89       1.01910      .   S
    N24    O90       2.07795  1_556   S
    Zr57   O90       1.02269      .   S
    N25    O91       2.07867  1_554   S
    Zr39   O91       1.02308      .   S
    N21    O92       2.07792      .   S
    Zr67   O92       1.02266      .   S
    N21    O93       2.06938      .   S
    Zr64   O93       1.01900      .   S
    N29    O94       2.04913      .   S
    Zr60   O94       1.00420      .   S
    N29    O95       2.13340      .   S
    Zr54   O95       1.05357      .   S
    N30    O96       2.07879      .   S
    Zr36   O96       1.02306      .   S
    N30    O97       2.06974      .   S
    Zr67   O97       1.01931      .   S
    N23    O98       2.06913      .   S
    Zr42   O98       1.01889      .   S
    N22    O99       2.06918      .   S
    Zr36   O99       1.01893      .   S
    N22    O100      2.07861  1_455   S
    Zr54   O100      1.02298      .   S
    Zr32   O101      1.01679      .   S
    N12    O101      2.06955      .   S
    Zr32   O102      1.01911      .   S
    N7     O102      2.07345  1_455   S
    Zr32   O103      1.00156      .   S
    N8     O103      2.04484      .   S
    N31    O104      2.07753      .   S
    Zr64   O104      1.02251      .   S
    N31    O105      2.06813      .   S
    Zr54   O105      1.01832      .   S
    N26    O106      2.07173  1_556   S
    Zr52   O106      1.01828      .   S
    N26    O107      2.06735      .   S
    Zr50   O107      1.01583      .   S
    N12    O108      2.07310      .   S
    Zr48   O108      1.01880      .   S
    N7     O109      2.06988      .   S
    Zr34   O109      1.01685      .   S
    Zr36   O110      1.05338      .   S
    N17    O110      2.13310      .   S
    Zr34   O111      1.00185      .   S
    N15    O111      2.04514      .   S
    Zr34   O112      1.01837      .   S
    N11    O112      2.07195      .   S
    N8     O113      2.13298      .   S
    Zr42   O113      1.05329      .   S
    N6     O114      2.06658      .   S
    Zr48   O114      1.01542      .   S
    N6     O115      2.07225      .   S
    Zr62   O115      1.01851      .   S
    Zr70   O116      1.00193      .   S
    N2     O116      2.04530      .   S
    N2     O117      2.13289      .   S
    Zr64   O117      1.05325      .   S
    Zr62   O118      1.01595      .   S
    N11    O118      2.06761      .   S
    N17    O119      2.04532      .   S
    Zr50   O119      1.00194      .   S
