# CIF file generated by openbabel 2.4.90, see http://openbabel.sf.net
data_I
_chemical_name_common ''
_cell_length_a 23.047
_cell_length_b 15.562
_cell_length_c 16.219
_cell_angle_alpha 89.978
_cell_angle_beta 89.974
_cell_angle_gamma 90.074
_space_group_name_H-M_alt 'P 1'
_space_group_name_Hall 'P 1'
loop_
    _symmetry_equiv_pos_as_xyz
    x,y,z
loop_
    _atom_site_label
    _atom_site_type_symbol
    _atom_site_fract_x
    _atom_site_fract_y
    _atom_site_fract_z
    _atom_site_occupancy
    Zr0     Zr   0.13189   0.76822   0.43366   1.000
    Zr1     Zr   0.63170   0.76740   0.43370   1.000
    Zr2     Zr   0.12563   0.79959   0.05070   1.000
    Zr3     Zr   0.62564   0.79949   0.05085   1.000
    Zr4     Zr   0.11829   0.23270   0.93364   1.000
    Zr5     Zr   0.61830   0.23254   0.93373   1.000
    Zr6     Zr   0.12460   0.20078   0.55068   1.000
    Zr7     Zr   0.62451   0.20049   0.55080   1.000
    Zr8     Zr   0.36810   0.26825   0.06636   1.000
    Zr9     Zr   0.86814   0.26821   0.06600   1.000
    Zr10    Zr   0.37477   0.29978   0.44920   1.000
    Zr11    Zr   0.87455   0.29910   0.44943   1.000
    Zr12    Zr   0.38172   0.73272   0.56626   1.000
    Zr13    Zr   0.88173   0.73169   0.56628   1.000
    Zr14    Zr   0.37562   0.70081   0.94917   1.000
    Zr15    Zr   0.87563   0.70081   0.94928   1.000
    N16     N    0.17694   0.04442   0.22269   1.000
    O17     O    0.15084   0.11777   0.35225   1.000
    O18     O    0.15252   0.95997   0.13429   1.000
    O19     O    0.14744   0.10694   0.09214   1.000
    N20     N    0.67693   0.04427   0.22277   1.000
    O21     O    0.65083   0.11765   0.35233   1.000
    O22     O    0.65252   0.95983   0.13440   1.000
    O23     O    0.64742   0.10677   0.09219   1.000
    N24     N    0.62078   0.21997   0.74628   1.000
    O25     O    0.61935   0.24605   0.80907   1.000
    O26     O    0.61945   0.20265   0.81181   1.000
    O27     O    0.62322   0.19242   0.68174   1.000
    O28     O    0.62149   0.23489   0.67830   1.000
    N29     N    0.07345   0.95590   0.72271   1.000
    O30     O    0.09941   0.88248   0.85223   1.000
    O31     O    0.09785   0.04038   0.63434   1.000
    O32     O    0.10328   0.89375   0.59194   1.000
    N33     N    0.57303   0.95570   0.72285   1.000
    O34     O    0.59920   0.88234   0.85238   1.000
    O35     O    0.59752   0.04012   0.63443   1.000
    O36     O    0.60254   0.89318   0.59222   1.000
    N37     N    0.37924   0.72018   0.75367   1.000
    O38     O    0.38051   0.70285   0.68816   1.000
    O39     O    0.37686   0.69265   0.81823   1.000
    O40     O    0.37856   0.73514   0.82163   1.000
    O41     O    0.38068   0.74624   0.69087   1.000
    N42     N    0.50613   0.74995   0.49698   1.000
    O43     O    0.46905   0.73952   0.53930   1.000
    O44     O    0.45841   0.75263   0.50292   1.000
    O45     O    0.54363   0.76116   0.45637   1.000
    O46     O    0.55404   0.74655   0.49231   1.000
    N47     N    0.00616   0.75084   0.49718   1.000
    O48     O    0.96907   0.73977   0.53949   1.000
    O49     O    0.95841   0.75282   0.50303   1.000
    O50     O    0.04368   0.76189   0.45648   1.000
    O51     O    0.05415   0.74793   0.49251   1.000
    N52     N    0.87884   0.71995   0.75373   1.000
    O53     O    0.87999   0.70236   0.68825   1.000
    O54     O    0.87658   0.69252   0.81836   1.000
    O55     O    0.87838   0.73501   0.82167   1.000
    O56     O    0.88048   0.74577   0.69086   1.000
    N57     N    0.82347   0.54424   0.27753   1.000
    O58     O    0.84787   0.45963   0.36584   1.000
    O59     O    0.85330   0.60628   0.40815   1.000
    O60     O    0.84942   0.61769   0.14787   1.000
    N61     N    0.32304   0.54460   0.27730   1.000
    O62     O    0.34766   0.46012   0.36565   1.000
    O63     O    0.35257   0.60704   0.40782   1.000
    O64     O    0.34919   0.61789   0.14769   1.000
    N65     N    0.25616   0.75002   0.50287   1.000
    O66     O    0.20845   0.74759   0.49695   1.000
    O67     O    0.29363   0.73883   0.54350   1.000
    O68     O    0.30409   0.75346   0.50758   1.000
    O69     O    0.21914   0.76070   0.46053   1.000
    N70     N    0.75608   0.74917   0.50283   1.000
    O71     O    0.70832   0.74697   0.49698   1.000
    O72     O    0.79355   0.73812   0.54352   1.000
    O73     O    0.80408   0.75202   0.50742   1.000
    O74     O    0.71902   0.75999   0.46053   1.000
    N75     N    0.92657   0.45586   0.77749   1.000
    O76     O    0.90065   0.38235   0.64790   1.000
    O77     O    0.90222   0.54038   0.86577   1.000
    O78     O    0.89671   0.39370   0.90804   1.000
    N79     N    0.42658   0.45576   0.77753   1.000
    O80     O    0.40072   0.38247   0.64782   1.000
    O81     O    0.40221   0.54034   0.86574   1.000
    O82     O    0.39671   0.39367   0.90811   1.000
    N83     N    0.12924   0.78015   0.24618   1.000
    O84     O    0.13058   0.79767   0.31167   1.000
    O85     O    0.12682   0.80766   0.18160   1.000
    O86     O    0.12856   0.76518   0.17825   1.000
    O87     O    0.13071   0.75426   0.30904   1.000
    N88     N    0.49386   0.25085   0.00287   1.000
    O89     O    0.54163   0.25302   0.99702   1.000
    O90     O    0.45634   0.26191   0.04357   1.000
    O91     O    0.44584   0.24796   0.00748   1.000
    O92     O    0.53095   0.24001   0.96057   1.000
    N93     N    0.12084   0.22017   0.74618   1.000
    O94     O    0.11949   0.20285   0.81172   1.000
    O95     O    0.12333   0.19263   0.68166   1.000
    O96     O    0.12156   0.23511   0.67819   1.000
    O97     O    0.11938   0.24623   0.80898   1.000
    N98     N    0.74960   0.74522   0.00079   1.000
    O99     O    0.78766   0.71051   0.97639   1.000
    O100    O    0.70299   0.74280   0.01491   1.000
    O101    O    0.71239   0.78175   0.02610   1.000
    O102    O    0.79652   0.75053   0.98539   1.000
    N103    N    0.62930   0.77996   0.24629   1.000
    O104    O    0.63060   0.79728   0.31180   1.000
    O105    O    0.62689   0.80753   0.18176   1.000
    O106    O    0.62860   0.76505   0.17833   1.000
    O107    O    0.63070   0.75389   0.30909   1.000
    N108    N    0.99288   0.25085   0.00287   1.000
    O109    O    0.04114   0.25307   0.99699   1.000
    O110    O    0.95587   0.26189   0.04348   1.000
    O111    O    0.94537   0.24795   0.00739   1.000
    O112    O    0.03045   0.24006   0.96054   1.000
    N113    N    0.50075   0.25564   0.50087   1.000
    O114    O    0.46270   0.29049   0.47672   1.000
    O115    O    0.54734   0.25774   0.51498   1.000
    O116    O    0.53787   0.21879   0.52606   1.000
    O117    O    0.45387   0.25021   0.48521   1.000
    N118    N    0.00055   0.25475   0.50112   1.000
    O119    O    0.96249   0.28941   0.47658   1.000
    O120    O    0.04717   0.25727   0.51502   1.000
    O121    O    0.03783   0.21831   0.52627   1.000
    O122    O    0.95361   0.24944   0.48590   1.000
    N123    N    0.99959   0.75532   0.99921   1.000
    O124    O    0.03770   0.79014   0.02340   1.000
    O125    O    0.95300   0.75764   0.98510   1.000
    O126    O    0.96236   0.71868   0.97401   1.000
    O127    O    0.04645   0.74992   0.01477   1.000
    N128    N    0.49959   0.75522   0.99925   1.000
    O129    O    0.53771   0.79001   0.02351   1.000
    O130    O    0.45300   0.75758   0.98509   1.000
    O131    O    0.46235   0.71862   0.97399   1.000
    O132    O    0.54646   0.74982   0.01482   1.000
    N133    N    0.24958   0.74524   0.00075   1.000
    O134    O    0.28764   0.71053   0.97633   1.000
    O135    O    0.20297   0.74285   0.01484   1.000
    O136    O    0.21237   0.78179   0.02604   1.000
    O137    O    0.29650   0.75054   0.98534   1.000
    N138    N    0.24383   0.25003   0.99708   1.000
    O139    O    0.28086   0.26070   0.03945   1.000
    O140    O    0.29153   0.24760   0.00302   1.000
    O141    O    0.20636   0.23885   0.95642   1.000
    O142    O    0.19592   0.25346   0.99236   1.000
    N143    N    0.74385   0.25000   0.99713   1.000
    O144    O    0.78088   0.26068   0.03939   1.000
    O145    O    0.79155   0.24757   0.00296   1.000
    O146    O    0.70637   0.23877   0.95649   1.000
    O147    O    0.69594   0.25340   0.99242   1.000
    N148    N    0.37093   0.28023   0.25379   1.000
    O149    O    0.36957   0.29773   0.18829   1.000
    O150    O    0.37345   0.30779   0.31832   1.000
    O151    O    0.37164   0.26531   0.32173   1.000
    O152    O    0.36936   0.25432   0.19097   1.000
    N153    N    0.87098   0.28001   0.25386   1.000
    O154    O    0.86966   0.29757   0.18827   1.000
    O155    O    0.87338   0.30744   0.31846   1.000
    O156    O    0.87162   0.26495   0.32182   1.000
    O157    O    0.86940   0.25417   0.19092   1.000
    N158    N    0.25067   0.24527   0.49888   1.000
    O159    O    0.21256   0.21058   0.52343   1.000
    O160    O    0.29730   0.24291   0.48495   1.000
    O161    O    0.28798   0.28185   0.47366   1.000
    O162    O    0.20374   0.25053   0.51417   1.000
    N163    N    0.75062   0.24455   0.49926   1.000
    O164    O    0.71247   0.20978   0.52345   1.000
    O165    O    0.79720   0.24223   0.48516   1.000
    O166    O    0.78785   0.28121   0.47408   1.000
    O167    O    0.70375   0.25003   0.51484   1.000
loop_
    _geom_bond_atom_site_label_1
    _geom_bond_atom_site_label_2
    _geom_bond_distance
    _geom_bond_site_symmetry_2
    _ccdc_geom_bond_type
    N16    O17       2.46626      .   S
    Zr6    O17       3.52074      .   S
    N16    O18       2.02489  1_545   S
    Zr2    O18       2.90704      .   S
    N16    O19       2.42783      .   S
    Zr4    O19       3.30014  1_556   S
    N20    O21       2.46648      .   S
    Zr7    O21       3.52069      .   S
    N20    O22       2.02427  1_545   S
    Zr3    O22       2.90616      .   S
    N20    O23       2.42800      .   S
    Zr5    O23       3.29971  1_556   S
    N24    O25       1.09703      .   S
    Zr5    O25       2.03272      .   S
    N24    O26       1.09686      .   S
    Zr5    O26       2.03173      .   S
    N24    O27       1.13266      .   S
    Zr7    O27       2.12761      .   S
    N24    O28       1.12665      .   S
    Zr7    O28       2.13747      .   S
    N29    O30       2.46523      .   S
    Zr2    O30       3.52019  1_554   S
    N29    O31       2.02368  1_565   S
    Zr6    O31       2.90587      .   S
    N29    O32       2.43062      .   S
    Zr0    O32       3.29349      .   S
    N33    O34       2.46620      .   S
    Zr3    O34       3.52076  1_554   S
    N33    O35       2.02408  1_565   S
    Zr7    O35       2.90647      .   S
    N33    O36       2.42893      .   S
    Zr1    O36       3.30139      .   S
    N37    O38       1.09672      .   S
    Zr12   O38       2.03093      .   S
    N37    O39       1.13248      .   S
    Zr14   O39       2.12778      .   S
    N37    O40       1.12670      .   S
    Zr14   O40       2.13732      .   S
    N37    O41       1.09668      .   S
    Zr12   O41       2.03216      .   S
    N42    O43       1.10778      .   S
    Zr12   O43       2.06203      .   S
    N42    O44       1.10497      .   S
    Zr12   O44       2.06686      .   S
    N42    O45       1.09994      .   S
    Zr1    O45       2.06488      .   S
    N42    O46       1.10797      .   S
    Zr1    O46       2.05171      .   S
    N47    O48       1.10916  1_455   S
    Zr13   O48       2.06267      .   S
    N47    O49       1.10502  1_455   S
    Zr13   O49       2.06875      .   S
    N47    O50       1.10106      .   S
    Zr0    O50       2.06838      .   S
    N47    O51       1.10969      .   S
    Zr0    O51       2.05358      .   S
    N52    O53       1.09723      .   S
    Zr13   O53       2.03032      .   S
    N52    O54       1.13273      .   S
    Zr15   O54       2.12753      .   S
    N52    O55       1.12668      .   S
    Zr15   O55       2.13770      .   S
    N52    O56       1.09648      .   S
    Zr13   O56       2.03270      .   S
    N57    O58       2.02540      .   S
    Zr11   O58       2.90856      .   S
    N57    O59       2.42777      .   S
    Zr13   O59       3.28901      .   S
    N57    O60       2.46617      .   S
    Zr15   O60       3.52219  1_556   S
    N61    O62       2.02608      .   S
    Zr10   O62       2.90773      .   S
    N61    O63       2.42689      .   S
    Zr12   O63       3.29878      .   S
    N61    O64       2.46532      .   S
    Zr14   O64       3.52082  1_556   S
    N65    O66       1.10450      .   S
    Zr0    O66       2.06717      .   S
    N65    O67       1.10044      .   S
    Zr12   O67       2.06590      .   S
    N65    O68       1.10837      .   S
    Zr12   O68       2.05277      .   S
    N65    O69       1.10822      .   S
    Zr0    O69       2.06130      .   S
    N70    O71       1.10535      .   S
    Zr1    O71       2.06762      .   S
    N70    O72       1.10088      .   S
    Zr13   O72       2.06822      .   S
    N70    O73       1.10962      .   S
    Zr13   O73       2.05363      .   S
    N70    O74       1.10863      .   S
    Zr1    O74       2.06256      .   S
    N75    O76       2.46666      .   S
    Zr11   O76       3.52208      .   S
    N75    O77       2.02427      .   S
    Zr15   O77       2.90677      .   S
    N75    O78       2.42638      .   S
    Zr9    O78       3.28676  1_554   S
    N79    O80       2.46648      .   S
    Zr10   O80       3.52045      .   S
    N79    O81       2.02418      .   S
    Zr14   O81       2.90666      .   S
    N79    O82       2.42655      .   S
    Zr8    O82       3.28989  1_554   S
    N83    O84       1.09711      .   S
    Zr0    O84       2.03111      .   S
    N83    O85       1.13281      .   S
    Zr2    O85       2.12706      .   S
    N83    O86       1.12633      .   S
    Zr2    O86       2.13778      .   S
    N83    O87       1.09667      .   S
    Zr0    O87       2.03308      .   S
    N88    O89       1.10549  1_554   S
    Zr5    O89       2.06822      .   S
    N88    O90       1.10133      .   S
    Zr8    O90       2.06932      .   S
    N88    O91       1.10998      .   S
    Zr8    O91       2.05475      .   S
    N88    O92       1.10892  1_554   S
    Zr5    O92       2.06304      .   S
    N93    O94       1.09696      .   S
    Zr4    O94       2.03154      .   S
    N93    O95       1.13252      .   S
    Zr6    O95       2.12823      .   S
    N93    O96       1.12699      .   S
    Zr6    O96       2.13740      .   S
    N93    O97       1.09689      .   S
    Zr4    O97       2.03291      .   S
    N98    O99       1.10404  1_554   S
    Zr15   O99       2.08019      .   S
    N98    O100      1.09889      .   S
    Zr3    O100      2.07334      .   S
    N98    O101      1.10824      .   S
    Zr3    O101      2.05785      .   S
    N98    O102      1.11269  1_554   S
    Zr15   O102      2.06623      .   S
    N103   O104      1.09671      .   S
    Zr1    O104      2.03107      .   S
    N103   O105      1.13243      .   S
    Zr3    O105      2.12711      .   S
    N103   O106      1.12652      .   S
    Zr3    O106      2.13694      .   S
    N103   O107      1.09674      .   S
    Zr1    O107      2.03219      .   S
    N108   O109      1.11673  1_654   S
    Zr4    O109      2.07792      .   S
    N108   O110      1.09124      .   S
    Zr9    O110      2.05689      .   S
    N108   O111      1.09826      .   S
    Zr9    O111      2.04226      .   S
    N108   O112      1.11768  1_654   S
    Zr4    O112      2.07400      .   S
    N113   O114      1.10368      .   S
    Zr10   O114      2.08055      .   S
    N113   O115      1.09847      .   S
    Zr7    O115      2.07337      .   S
    N113   O116      1.10850      .   S
    Zr7    O116      2.05705      .   S
    N113   O117      1.11307      .   S
    Zr10   O117      2.06506      .   S
    N118   O119      1.10445  1_455   S
    Zr11   O119      2.07990      .   S
    N118   O120      1.09872      .   S
    Zr6    O120      2.07276      .   S
    N118   O121      1.10801      .   S
    Zr6    O121      2.05737      .   S
    N118   O122      1.11257  1_455   S
    Zr11   O122      2.06675      .   S
    N123   O124      1.10367  1_656   S
    Zr2    O124      2.07956      .   S
    N123   O125      1.09868      .   S
    Zr15   O125      2.07266      .   S
    N123   O126      1.10803      .   S
    Zr15   O126      2.05731      .   S
    N123   O127      1.11250  1_656   S
    Zr2    O127      2.06513      .   S
    N128   O129      1.10398  1_556   S
    Zr3    O129      2.07989      .   S
    N128   O130      1.09886      .   S
    Zr14   O130      2.07312      .   S
    N128   O131      1.10821      .   S
    Zr14   O131      2.05768      .   S
    N128   O132      1.11265  1_556   S
    Zr3    O132      2.06573      .   S
    N133   O134      1.10417  1_554   S
    Zr14   O134      2.08042      .   S
    N133   O135      1.09880      .   S
    Zr2    O135      2.07335      .   S
    N133   O136      1.10822      .   S
    Zr2    O136      2.05775      .   S
    N133   O137      1.11276  1_554   S
    Zr14   O137      2.06656      .   S
    N138   O139      1.10826  1_556   S
    Zr8    O139      2.06094      .   S
    N138   O140      1.10430  1_556   S
    Zr8    O140      2.06717      .   S
    N138   O141      1.10044      .   S
    Zr4    O141      2.06556      .   S
    N138   O142      1.10819      .   S
    Zr4    O142      2.05268      .   S
    N143   O144      1.10738  1_556   S
    Zr9    O144      2.06024      .   S
    N143   O145      1.10430  1_556   S
    Zr9    O145      2.06506      .   S
    N143   O146      1.10044      .   S
    Zr5    O146      2.06544      .   S
    N143   O147      1.10814      .   S
    Zr5    O147      2.05267      .   S
    N148   O149      1.09705      .   S
    Zr8    O149      2.03055      .   S
    N148   O150      1.13274      .   S
    Zr10   O150      2.12655      .   S
    N148   O151      1.12614      .   S
    Zr10   O151      2.13738      .   S
    N148   O152      1.09650      .   S
    Zr8    O152      2.03277      .   S
    N153   O154      1.09879      .   S
    Zr9    O154      2.03550      .   S
    N153   O155      1.13278      .   S
    Zr11   O155      2.12830      .   S
    N153   O156      1.12692      .   S
    Zr11   O156      2.13804      .   S
    N153   O157      1.09806      .   S
    Zr9    O157      2.03792      .   S
    N158   O159      1.10446      .   S
    Zr6    O159      2.08008      .   S
    N158   O160      1.09867      .   S
    Zr10   O160      2.07404      .   S
    N158   O161      1.10849      .   S
    Zr10   O161      2.05764      .   S
    N158   O162      1.11273      .   S
    Zr6    O162      2.06686      .   S
    N163   O164      1.10359      .   S
    Zr7    O164      2.07992      .   S
    N163   O165      1.09824      .   S
    Zr11   O165      2.07163      .   S
    N163   O166      1.10766      .   S
    Zr11   O166      2.05613      .   S
    N163   O167      1.11268      .   S
    Zr7    O167      2.06504      .   S
