# CIF file generated by openbabel 2.4.90, see http://openbabel.sf.net
data_I
_chemical_name_common ''
_cell_length_a 23.047
_cell_length_b 15.562
_cell_length_c 16.219
_cell_angle_alpha 89.978
_cell_angle_beta 89.974
_cell_angle_gamma 90.074
_space_group_name_H-M_alt 'P 1'
_space_group_name_Hall 'P 1'
loop_
    _symmetry_equiv_pos_as_xyz
    x,y,z
loop_
    _atom_site_label
    _atom_site_type_symbol
    _atom_site_fract_x
    _atom_site_fract_y
    _atom_site_fract_z
    _atom_site_occupancy
    N0      N    0.17694   0.04442   0.22269   1.000
    N1      N    0.67693   0.04427   0.22277   1.000
    N2      N    0.62078   0.21997   0.74628   1.000
    N3      N    0.07345   0.95590   0.72271   1.000
    N4      N    0.57303   0.95570   0.72285   1.000
    N5      N    0.37924   0.72018   0.75367   1.000
    N6      N    0.50613   0.74995   0.49698   1.000
    N7      N    0.00616   0.75084   0.49718   1.000
    N8      N    0.87884   0.71995   0.75373   1.000
    N9      N    0.82347   0.54424   0.27753   1.000
    N10     N    0.32304   0.54460   0.27730   1.000
    N11     N    0.25616   0.75002   0.50287   1.000
    N12     N    0.75608   0.74917   0.50283   1.000
    N13     N    0.92657   0.45586   0.77749   1.000
    N14     N    0.42658   0.45576   0.77753   1.000
    N15     N    0.12924   0.78015   0.24618   1.000
    N16     N    0.49386   0.25085   0.00287   1.000
    N17     N    0.12084   0.22017   0.74618   1.000
    N18     N    0.74960   0.74522   0.00079   1.000
    N19     N    0.62930   0.77996   0.24629   1.000
    N20     N    0.99288   0.25085   0.00287   1.000
    N21     N    0.50075   0.25564   0.50087   1.000
    N22     N    0.00055   0.25475   0.50112   1.000
    N23     N    0.99959   0.75532   0.99921   1.000
    N24     N    0.49959   0.75522   0.99925   1.000
    N25     N    0.24958   0.74524   0.00075   1.000
    N26     N    0.24383   0.25003   0.99708   1.000
    N27     N    0.74385   0.25000   0.99713   1.000
    N28     N    0.37093   0.28023   0.25379   1.000
    N29     N    0.87098   0.28001   0.25386   1.000
    N30     N    0.25067   0.24527   0.49888   1.000
    N31     N    0.75062   0.24455   0.49926   1.000
    Zr32    Zr   0.88173   0.73169   0.56628   1.000
    O33     O    0.88111   0.73873   0.62857   1.000
    O34     O    0.92540   0.73573   0.55289   1.000
    O35     O    0.88086   0.71703   0.62726   1.000
    O36     O    0.83764   0.73491   0.55490   1.000
    O37     O    0.84290   0.74186   0.53685   1.000
    O38     O    0.92007   0.74225   0.53466   1.000
    O39     O    0.86752   0.66898   0.48722   1.000
    Zr40    Zr   0.13189   0.76822   0.43366   1.000
    O41     O    0.13124   0.78295   0.37266   1.000
    O42     O    0.11758   0.83098   0.51280   1.000
    O43     O    0.17017   0.75791   0.46530   1.000
    O44     O    0.13130   0.76124   0.37135   1.000
    O45     O    0.08778   0.76506   0.44507   1.000
    O46     O    0.09302   0.75808   0.46308   1.000
    O47     O    0.17552   0.76446   0.44709   1.000
    Zr48    Zr   0.12460   0.20078   0.55068   1.000
    O49     O    0.12397   0.19671   0.61617   1.000
    O50     O    0.12308   0.21795   0.61444   1.000
    O51     O    0.08121   0.20954   0.53848   1.000
    O52     O    0.08589   0.22902   0.53285   1.000
    O53     O    0.16858   0.20568   0.53706   1.000
    O54     O    0.16417   0.22566   0.53242   1.000
    O55     O    0.11123   0.12058   0.59251   1.000
    O56     O    0.13772   0.15928   0.45146   1.000
    Zr57    Zr   0.37562   0.70081   0.94917   1.000
    O58     O    0.41898   0.70971   0.96158   1.000
    O59     O    0.33163   0.70567   0.96275   1.000
    O60     O    0.33606   0.72567   0.96725   1.000
    O61     O    0.41431   0.72919   0.96713   1.000
    O62     O    0.37624   0.69673   0.88370   1.000
    O63     O    0.37709   0.71797   0.88540   1.000
    O64     O    0.38891   0.62057   0.90746   1.000
    O65     O    0.36240   0.65935   0.04843   1.000
    Zr66    Zr   0.87563   0.70081   0.94928   1.000
    O67     O    0.83608   0.72567   0.96734   1.000
    O68     O    0.83165   0.70566   0.96284   1.000
    O69     O    0.91900   0.70975   0.96164   1.000
    O70     O    0.87701   0.71791   0.88548   1.000
    O71     O    0.91431   0.72923   0.96719   1.000
    O72     O    0.88893   0.62059   0.90753   1.000
    O73     O    0.87610   0.69667   0.88382   1.000
    O74     O    0.86253   0.65925   0.04857   1.000
    Zr75    Zr   0.12563   0.79959   0.05070   1.000
    O76     O    0.08604   0.77475   0.03273   1.000
    O77     O    0.08166   0.79486   0.03705   1.000
    O78     O    0.16900   0.79069   0.03837   1.000
    O79     O    0.16430   0.77122   0.03277   1.000
    O80     O    0.13907   0.87978   0.09250   1.000
    O81     O    0.12623   0.80363   0.11615   1.000
    O82     O    0.11252   0.84104   0.95146   1.000
    O83     O    0.12710   0.78239   0.11447   1.000
    Zr84    Zr   0.63170   0.76740   0.43370   1.000
    O85     O    0.67536   0.76369   0.44711   1.000
    O86     O    0.63115   0.78234   0.37275   1.000
    O87     O    0.63120   0.76065   0.37139   1.000
    O88     O    0.58766   0.76428   0.44504   1.000
    O89     O    0.59287   0.75697   0.46301   1.000
    O90     O    0.61712   0.83029   0.51296   1.000
    O91     O    0.67001   0.75719   0.46534   1.000
    Zr92    Zr   0.11829   0.23270   0.93364   1.000
    O93     O    0.07971   0.24289   0.96531   1.000
    O94     O    0.16232   0.23578   0.94503   1.000
    O95     O    0.15710   0.24308   0.96300   1.000
    O96     O    0.13286   0.16982   0.01289   1.000
    O97     O    0.11883   0.23947   0.87131   1.000
    O98     O    0.07437   0.23638   0.94709   1.000
    O99     O    0.11889   0.21778   0.87268   1.000
    Zr100   Zr   0.36810   0.26825   0.06636   1.000
    O101    O    0.32448   0.26447   0.05290   1.000
    O102    O    0.36884   0.28299   0.12732   1.000
    O103    O    0.36873   0.26129   0.12866   1.000
    O104    O    0.40697   0.25811   0.03692   1.000
    O105    O    0.38240   0.33096   0.98723   1.000
    O106    O    0.41222   0.26508   0.05496   1.000
    O107    O    0.32982   0.25792   0.03469   1.000
    Zr108   Zr   0.87455   0.29910   0.44943   1.000
    O109    O    0.83120   0.29015   0.46175   1.000
    O110    O    0.91408   0.27427   0.46766   1.000
    O111    O    0.87309   0.28202   0.38563   1.000
    O112    O    0.83588   0.27067   0.46730   1.000
    O113    O    0.87397   0.30327   0.38394   1.000
    O114    O    0.88760   0.34072   0.54866   1.000
    O115    O    0.86121   0.37936   0.40763   1.000
    O116    O    0.91852   0.29425   0.46301   1.000
    Zr117   Zr   0.62564   0.79949   0.05085   1.000
    O118    O    0.66432   0.77115   0.03288   1.000
    O119    O    0.62627   0.80351   0.11630   1.000
    O120    O    0.58168   0.79475   0.03718   1.000
    O121    O    0.63908   0.87966   0.09263   1.000
    O122    O    0.58605   0.77465   0.03284   1.000
    O123    O    0.66902   0.79062   0.03847   1.000
    O124    O    0.61242   0.84091   0.95162   1.000
    O125    O    0.62712   0.78227   0.11459   1.000
    Zr126   Zr   0.86814   0.26821   0.06600   1.000
    O127    O    0.90675   0.25808   0.03669   1.000
    O128    O    0.82985   0.25789   0.03448   1.000
    O129    O    0.88243   0.33095   0.98702   1.000
    O130    O    0.82451   0.26444   0.05270   1.000
    O131    O    0.86877   0.26119   0.12846   1.000
    O132    O    0.86890   0.28289   0.12713   1.000
    O133    O    0.91201   0.26505   0.05474   1.000
    Zr134   Zr   0.38172   0.73272   0.56626   1.000
    O135    O    0.42538   0.73612   0.55278   1.000
    O136    O    0.38111   0.71778   0.62721   1.000
    O137    O    0.38120   0.73948   0.62856   1.000
    O138    O    0.42006   0.74267   0.53459   1.000
    O139    O    0.33767   0.73577   0.55488   1.000
    O140    O    0.34290   0.74309   0.53692   1.000
    O141    O    0.36714   0.66988   0.48704   1.000
    Zr142   Zr   0.62451   0.20049   0.55080   1.000
    O143    O    0.58119   0.20964   0.53843   1.000
    O144    O    0.63767   0.15907   0.45156   1.000
    O145    O    0.61101   0.12031   0.59262   1.000
    O146    O    0.66849   0.20513   0.53712   1.000
    O147    O    0.66413   0.22526   0.53282   1.000
    O148    O    0.62300   0.21769   0.61455   1.000
    O149    O    0.62386   0.19645   0.61627   1.000
    O150    O    0.58593   0.22912   0.53289   1.000
    Zr151   Zr   0.37477   0.29978   0.44920   1.000
    O152    O    0.38774   0.34113   0.54851   1.000
    O153    O    0.33137   0.29082   0.46143   1.000
    O154    O    0.41873   0.29514   0.46296   1.000
    O155    O    0.37411   0.30379   0.38376   1.000
    O156    O    0.33603   0.27135   0.46707   1.000
    O157    O    0.41432   0.27500   0.46721   1.000
    O158    O    0.37320   0.28255   0.38546   1.000
    O159    O    0.36121   0.37995   0.40742   1.000
    Zr160   Zr   0.61830   0.23254   0.93373   1.000
    O161    O    0.57462   0.23627   0.94715   1.000
    O162    O    0.61883   0.23929   0.87140   1.000
    O163    O    0.63286   0.16966   0.01296   1.000
    O164    O    0.66234   0.23566   0.94511   1.000
    O165    O    0.65712   0.24297   0.96307   1.000
    O166    O    0.61888   0.21760   0.87277   1.000
    O167    O    0.57997   0.24278   0.96537   1.000
loop_
    _geom_bond_atom_site_label_1
    _geom_bond_atom_site_label_2
    _geom_bond_distance
    _geom_bond_site_symmetry_2
    _ccdc_geom_bond_type
    Zr32   O33       1.01635      .   S
    N8     O33       2.05143      .   S
    Zr32   O34       1.03133      .   S
    N7     O34       2.08155  1_455   S
    Zr32   O35       1.01516      .   S
    N8     O35       2.05222      .   S
    Zr32   O36       1.03411      .   S
    N12    O36       2.07333      .   S
    Zr32   O37       1.02681      .   S
    N12    O37       2.07928      .   S
    Zr32   O38       1.03438      .   S
    N7     O38       2.07894  1_455   S
    Zr32   O39       1.64451      .   S
    N9     O39       4.04571      .   S
    Zr40   O41       1.01555      .   S
    N15    O41       2.05244      .   S
    Zr40   O42       1.64675      .   S
    N3     O42       4.05100      .   S
    Zr40   O43       1.03359      .   S
    N11    O43       2.07752      .   S
    Zr40   O44       1.01654      .   S
    N15    O44       2.05183      .   S
    Zr40   O45       1.03419      .   S
    N7     O45       2.07363      .   S
    Zr40   O46       1.02679      .   S
    N7     O46       2.07960      .   S
    Zr40   O47       1.03065      .   S
    N11    O47       2.07996      .   S
    Zr48   O49       1.06411      .   S
    N17    O49       2.14143      .   S
    Zr48   O50       1.06870      .   S
    N17    O50       2.13769      .   S
    Zr48   O51       1.02869      .   S
    N22    O51       2.07906      .   S
    Zr48   O52       1.03638      .   S
    N22    O52       2.07277      .   S
    Zr48   O53       1.04004      .   S
    N30    O53       2.08281      .   S
    Zr48   O54       1.03343      .   S
    N30    O54       2.08830      .   S
    Zr48   O55       1.45294      .   S
    N3     O55       3.43132  1_565   S
    Zr48   O56       1.76037      .   S
    N0     O56       4.21724      .   S
    Zr57   O58       1.02884      .   S
    N24    O58       2.07942      .   S
    Zr57   O59       1.04021      .   S
    N25    O59       2.08256  1_554   S
    Zr57   O60       1.03328      .   S
    N25    O60       2.08829  1_554   S
    Zr57   O61       1.03656      .   S
    N24    O61       2.07310      .   S
    Zr57   O62       1.06389      .   S
    N5     O62       2.14123      .   S
    Zr57   O63       1.06866      .   S
    N5     O63       2.13732      .   S
    Zr57   O64       1.45333      .   S
    N14    O64       3.43229      .   S
    Zr57   O65       1.76041  1_556   S
    N10    O65       4.21639      .   S
    Zr66   O67       1.03312      .   S
    N18    O67       2.08806  1_554   S
    Zr66   O68       1.04009      .   S
    N18    O68       2.08229  1_554   S
    Zr66   O69       1.02865      .   S
    N23    O69       2.07902      .   S
    Zr66   O70       1.06885      .   S
    N8     O70       2.13738      .   S
    Zr66   O71       1.03633      .   S
    N23    O71       2.07272      .   S
    Zr66   O72       1.45339      .   S
    N13    O72       3.43238      .   S
    Zr66   O73       1.06376      .   S
    N8     O73       2.14151      .   S
    Zr66   O74       1.76109  1_556   S
    N9     O74       4.21797      .   S
    Zr75   O76       1.03257      .   S
    N23    O76       2.08720  1_656   S
    Zr75   O77       1.03978      .   S
    N23    O77       2.08127  1_656   S
    Zr75   O78       1.02888      .   S
    N25    O78       2.07946      .   S
    Zr75   O79       1.03668      .   S
    N25    O79       2.07307      .   S
    Zr75   O80       1.45352      .   S
    N0     O80       3.43305  1_545   S
    Zr75   O81       1.06353      .   S
    N15    O81       2.14139      .   S
    Zr75   O82       1.76010  1_554   S
    N3     O82       4.21589      .   S
    Zr75   O83       1.06889      .   S
    N15    O83       2.13701      .   S
    Zr84   O85       1.03128      .   S
    N12    O85       2.08096      .   S
    Zr84   O86       1.01554      .   S
    N19    O86       2.05189      .   S
    Zr84   O87       1.01610      .   S
    N19    O87       2.05162      .   S
    Zr84   O88       1.03244      .   S
    N6     O88       2.07066      .   S
    Zr84   O89       1.02585      .   S
    N6     O89       2.07606      .   S
    Zr84   O90       1.65069      .   S
    N4     O90       4.05423      .   S
    Zr84   O91       1.03381      .   S
    N12    O91       2.07883      .   S
    Zr92   O93       1.03896      .   S
    N20    O93       2.09545  1_654   S
    Zr92   O94       1.03278      .   S
    N26    O94       2.07150      .   S
    Zr92   O95       1.02634      .   S
    N26    O95       2.07676      .   S
    Zr92   O96       1.65007  1_556   S
    N0     O96       4.05252      .   S
    Zr92   O97       1.01645      .   S
    N17    O97       2.05212      .   S
    Zr92   O98       1.03700      .   S
    N20    O98       2.09667  1_654   S
    Zr92   O99       1.01577      .   S
    N17    O99       2.05248      .   S
    Zr100  O101      1.03047      .   S
    N26    O101      2.07983  1_556   S
    Zr100  O102      1.01528      .   S
    N28    O102      2.05214      .   S
    Zr100  O103      1.01638      .   S
    N28    O103      2.05144      .   S
    Zr100  O104      1.02737      .   S
    N16    O104      2.08023      .   S
    Zr100  O105      1.64495  1_554   S
    N14    O105      4.04513      .   S
    Zr100  O106      1.03466      .   S
    N16    O106      2.07431      .   S
    Zr100  O107      1.03359      .   S
    N26    O107      2.07723  1_556   S
    Zr108  O109      1.02806      .   S
    N31    O109      2.07805      .   S
    Zr108  O110      1.03338      .   S
    N22    O110      2.08810  1_455   S
    Zr108  O111      1.06902      .   S
    N29    O111      2.13787      .   S
    Zr108  O112      1.03581      .   S
    N31    O112      2.07169      .   S
    Zr108  O113      1.06415      .   S
    N29    O113      2.14185      .   S
    Zr108  O114      1.76104      .   S
    N13    O114      4.21840      .   S
    Zr108  O115      1.45428      .   S
    N9     O115      3.43449      .   S
    Zr108  O116      1.03995      .   S
    N22    O116      2.08267  1_455   S
    Zr117  O118      1.03667      .   S
    N18    O118      2.07319      .   S
    Zr117  O119      1.06356      .   S
    N19    O119      2.14089      .   S
    Zr117  O120      1.03994      .   S
    N24    O120      2.08183  1_556   S
    Zr117  O121      1.45308      .   S
    N1     O121      3.43201  1_545   S
    Zr117  O122      1.03286      .   S
    N24    O122      2.08765  1_556   S
    Zr117  O123      1.02893      .   S
    N18    O123      2.07953      .   S
    Zr117  O124      1.76038  1_554   S
    N4     O124      4.21713      .   S
    Zr117  O125      1.06847      .   S
    N19    O125      2.13688      .   S
    Zr126  O127      1.02113      .   S
    N20    O127      2.06228      .   S
    Zr126  O128      1.03253      .   S
    N27    O128      2.07634  1_556   S
    Zr126  O129      1.64338  1_554   S
    N13    O129      4.04328      .   S
    Zr126  O130      1.03012      .   S
    N27    O130      2.07835  1_556   S
    Zr126  O131      1.01896      .   S
    N29    O131      2.05571      .   S
    Zr126  O132      1.01775      .   S
    N29    O132      2.05650      .   S
    Zr126  O133      1.02845      .   S
    N20    O133      2.05677      .   S
    Zr134  O135      1.03101      .   S
    N6     O135      2.08000      .   S
    Zr134  O136      1.01546      .   S
    N5     O136      2.05187      .   S
    Zr134  O137      1.01608      .   S
    N5     O137      2.05155      .   S
    Zr134  O138      1.03343      .   S
    N6     O138      2.07805      .   S
    Zr134  O139      1.03295      .   S
    N11    O139      2.07170      .   S
    Zr134  O140      1.02639      .   S
    N11    O140      2.07707      .   S
    Zr134  O141      1.64939      .   S
    N10    O141      4.05082      .   S
    Zr142  O143      1.02852      .   S
    N21    O143      2.07947      .   S
    Zr142  O144      1.76034      .   S
    N1     O144      4.21736      .   S
    Zr142  O145      1.45324      .   S
    N4     O145      3.43193  1_565   S
    Zr142  O146      1.03996      .   S
    N31    O146      2.08126      .   S
    Zr142  O147      1.03252      .   S
    N31    O147      2.08738      .   S
    Zr142  O148      1.06874      .   S
    N2     O148      2.13733      .   S
    Zr142  O149      1.06381      .   S
    N2     O149      2.14137      .   S
    Zr142  O150      1.03668      .   S
    N21    O150      2.07275      .   S
    Zr151  O152      1.76022      .   S
    N14    O152      4.21727      .   S
    Zr151  O153      1.02882      .   S
    N30    O153      2.07982      .   S
    Zr151  O154      1.04028      .   S
    N21    O154      2.08154      .   S
    Zr151  O155      1.06328      .   S
    N28    O155      2.14106      .   S
    Zr151  O156      1.03702      .   S
    N30    O156      2.07313      .   S
    Zr151  O157      1.03253      .   S
    N21    O157      2.08789      .   S
    Zr151  O158      1.06869      .   S
    N28    O158      2.13662      .   S
    Zr151  O159      1.45387      .   S
    N10    O159      3.43470      .   S
    Zr160  O161      1.03152      .   S
    N16    O161      2.08148  1_554   S
    Zr160  O162      1.01636      .   S
    N2     O162      2.05219      .   S
    Zr160  O163      1.64986  1_556   S
    N1     O163      4.05240      .   S
    Zr160  O164      1.03272      .   S
    N27    O164      2.07148      .   S
    Zr160  O165      1.02634      .   S
    N27    O165      2.07670      .   S
    Zr160  O166      1.01587      .   S
    N2     O166      2.05239      .   S
    Zr160  O167      1.03411      .   S
    N16    O167      2.07928  1_554   S
