# CIF file generated by openbabel 2.4.90, see http://openbabel.sf.net
data_I
_chemical_name_common ''
_cell_length_a 23.047
_cell_length_b 15.562
_cell_length_c 16.219
_cell_angle_alpha 89.978
_cell_angle_beta 89.974
_cell_angle_gamma 90.074
_space_group_name_H-M_alt 'P 1'
_space_group_name_Hall 'P 1'
loop_
    _symmetry_equiv_pos_as_xyz
    x,y,z
loop_
    _atom_site_label
    _atom_site_type_symbol
    _atom_site_fract_x
    _atom_site_fract_y
    _atom_site_fract_z
    _atom_site_occupancy
    C0      C    0.13189   0.76822   0.43366   1.000
    C1      C    0.63170   0.76740   0.43370   1.000
    C2      C    0.12563   0.79959   0.05070   1.000
    C3      C    0.62564   0.79949   0.05085   1.000
    C4      C    0.11829   0.23270   0.93364   1.000
    C5      C    0.61830   0.23254   0.93373   1.000
    C6      C    0.12460   0.20078   0.55068   1.000
    C7      C    0.62451   0.20049   0.55080   1.000
    C8      C    0.36810   0.26825   0.06636   1.000
    C9      C    0.86814   0.26821   0.06600   1.000
    C10     C    0.37477   0.29978   0.44920   1.000
    C11     C    0.87455   0.29910   0.44943   1.000
    C12     C    0.38172   0.73272   0.56626   1.000
    C13     C    0.88173   0.73169   0.56628   1.000
    C14     C    0.37562   0.70081   0.94917   1.000
    C15     C    0.87563   0.70081   0.94928   1.000
    C16     C    0.12732   0.81823   0.82009   1.000
    C17     C    0.62725   0.81815   0.82021   1.000
    C18     C    0.15529   0.96783   0.54325   1.000
    C19     C    0.65422   0.96686   0.54328   1.000
    C20     C    0.12272   0.18182   0.32016   1.000
    C21     C    0.62275   0.18185   0.32019   1.000
    C22     C    0.09577   0.03311   0.04320   1.000
    C23     C    0.59575   0.03291   0.04331   1.000
    C24     C    0.37272   0.31823   0.67987   1.000
    C25     C    0.87273   0.31817   0.67996   1.000
    C26     C    0.34457   0.46787   0.95666   1.000
    C27     C    0.84462   0.46784   0.95674   1.000
    C28     C    0.37723   0.68191   0.17977   1.000
    C29     C    0.87731   0.68181   0.17992   1.000
    C30     C    0.40445   0.53341   0.45669   1.000
    C31     C    0.90546   0.53210   0.45676   1.000
    C32     C    0.19457   0.75805   0.74279   1.000
    C33     C    0.69457   0.75813   0.74288   1.000
    C34     C    0.23102   0.04825   0.53461   1.000
    C35     C    0.73041   0.04604   0.53354   1.000
    C36     C    0.11593   0.02669   0.70183   1.000
    C37     C    0.61552   0.02652   0.70199   1.000
    C38     C    0.43569   0.17214   0.74512   1.000
    C39     C    0.93594   0.17198   0.74519   1.000
    C40     C    0.16442   0.96430   0.81152   1.000
    C41     C    0.66405   0.96441   0.81167   1.000
    C42     C    0.09004   0.96297   0.83353   1.000
    C43     C    0.58969   0.96269   0.83383   1.000
    C44     C    0.19751   0.93099   0.67677   1.000
    C45     C    0.69706   0.93140   0.67666   1.000
    C46     C    0.14684   0.85175   0.64309   1.000
    C47     C    0.64662   0.85145   0.64383   1.000
    C48     C    0.04379   0.86815   0.68189   1.000
    C49     C    0.54332   0.86795   0.68243   1.000
    C50     C    0.04624   0.96050   0.61474   1.000
    C51     C    0.54577   0.96005   0.61502   1.000
    C52     C    0.48978   0.87703   0.81521   1.000
    C53     C    0.99018   0.87679   0.81470   1.000
    C54     C    0.41846   0.95606   0.90171   1.000
    C55     C    0.91880   0.95556   0.90134   1.000
    C56     C    0.39505   0.11157   0.86360   1.000
    C57     C    0.89533   0.11114   0.86358   1.000
    C58     C    0.00194   0.10085   0.65717   1.000
    C59     C    0.50162   0.10070   0.65716   1.000
    C60     C    0.05543   0.24185   0.24285   1.000
    C61     C    0.55548   0.24186   0.24286   1.000
    C62     C    0.01967   0.95378   0.03346   1.000
    C63     C    0.51971   0.95343   0.03362   1.000
    C64     C    0.13453   0.97351   0.20190   1.000
    C65     C    0.63452   0.97342   0.20213   1.000
    C66     C    0.31433   0.82828   0.24486   1.000
    C67     C    0.81425   0.82800   0.24491   1.000
    C68     C    0.08588   0.03559   0.31170   1.000
    C69     C    0.58588   0.03562   0.31182   1.000
    C70     C    0.16024   0.03724   0.33374   1.000
    C71     C    0.66024   0.03725   0.33383   1.000
    C72     C    0.05279   0.06795   0.17671   1.000
    C73     C    0.55278   0.06788   0.17678   1.000
    C74     C    0.10293   0.14839   0.14387   1.000
    C75     C    0.60292   0.14827   0.14388   1.000
    C76     C    0.20646   0.13233   0.18228   1.000
    C77     C    0.70649   0.13219   0.18235   1.000
    C78     C    0.20416   0.04028   0.11486   1.000
    C79     C    0.70414   0.04014   0.11493   1.000
    C80     C    0.26023   0.12336   0.31485   1.000
    C81     C    0.76025   0.12312   0.31496   1.000
    C82     C    0.33171   0.04439   0.40114   1.000
    C83     C    0.83164   0.04405   0.40129   1.000
    C84     C    0.35514   0.88895   0.36309   1.000
    C85     C    0.85498   0.88853   0.36322   1.000
    C86     C    0.24829   0.89963   0.15707   1.000
    C87     C    0.74828   0.89949   0.15706   1.000
    C88     C    0.30538   0.25779   0.75708   1.000
    C89     C    0.80541   0.25775   0.75710   1.000
    C90     C    0.26893   0.54814   0.96550   1.000
    C91     C    0.76897   0.54811   0.96552   1.000
    C92     C    0.38425   0.52670   0.79806   1.000
    C93     C    0.88416   0.52665   0.79814   1.000
    C94     C    0.06421   0.67205   0.75495   1.000
    C95     C    0.56433   0.67172   0.75511   1.000
    C96     C    0.33587   0.46429   0.68816   1.000
    C97     C    0.83583   0.46420   0.68827   1.000
    C98     C    0.41031   0.46294   0.66663   1.000
    C99     C    0.91025   0.46292   0.66660   1.000
    C100    C    0.30221   0.43204   0.82293   1.000
    C101    C    0.80229   0.43176   0.82306   1.000
    C102    C    0.35219   0.35202   0.85662   1.000
    C103    C    0.85241   0.35192   0.85676   1.000
    C104    C    0.45580   0.36795   0.81869   1.000
    C105    C    0.95593   0.36810   0.81861   1.000
    C106    C    0.45343   0.46033   0.88571   1.000
    C107    C    0.95352   0.46047   0.88560   1.000
    C108    C    0.00995   0.37651   0.68623   1.000
    C109    C    0.50996   0.37623   0.68641   1.000
    C110    C    0.08153   0.45524   0.59955   1.000
    C111    C    0.58173   0.45478   0.59989   1.000
    C112    C    0.10499   0.61097   0.63687   1.000
    C113    C    0.60523   0.61049   0.63716   1.000
    C114    C    0.49807   0.60075   0.84306   1.000
    C115    C    0.99805   0.60097   0.84297   1.000
    C116    C    0.44457   0.74227   0.25688   1.000
    C117    C    0.94462   0.74219   0.25707   1.000
    C118    C    0.48074   0.45469   0.46669   1.000
    C119    C    0.98112   0.45183   0.46540   1.000
    C120    C    0.36556   0.47366   0.29815   1.000
    C121    C    0.86589   0.47336   0.29827   1.000
    C122    C    0.18549   0.32817   0.25461   1.000
    C123    C    0.68573   0.32821   0.25486   1.000
    C124    C    0.41392   0.53576   0.18821   1.000
    C125    C    0.91426   0.53583   0.18834   1.000
    C126    C    0.33952   0.53729   0.16643   1.000
    C127    C    0.83984   0.53702   0.16675   1.000
    C128    C    0.44723   0.56869   0.32309   1.000
    C129    C    0.94773   0.56855   0.32304   1.000
    C130    C    0.39701   0.64872   0.35607   1.000
    C131    C    0.89748   0.64813   0.35686   1.000
    C132    C    0.29359   0.63210   0.31824   1.000
    C133    C    0.79411   0.63188   0.31880   1.000
    C134    C    0.29590   0.53973   0.38531   1.000
    C135    C    0.79647   0.53936   0.38574   1.000
    C136    C    0.23974   0.62375   0.18580   1.000
    C137    C    0.74021   0.62378   0.18639   1.000
    C138    C    0.16814   0.54513   0.09924   1.000
    C139    C    0.66857   0.54533   0.09970   1.000
    C140    C    0.14461   0.38944   0.13662   1.000
    C141    C    0.64498   0.38961   0.13689   1.000
    C142    C    0.25166   0.39916   0.34251   1.000
    C143    C    0.75193   0.39901   0.34289   1.000
    C144    C    0.12330   0.93350   0.79446   1.000
    C145    C    0.62298   0.93341   0.79469   1.000
    C146    C    0.15484   0.92102   0.64849   1.000
    C147    C    0.65434   0.92082   0.64874   1.000
    C148    C    0.04888   0.93814   0.67876   1.000
    C149    C    0.54844   0.93792   0.67911   1.000
    C150    C    0.00432   0.98306   0.73130   1.000
    C151    C    0.50393   0.98306   0.73153   1.000
    C152    C    0.47841   0.94316   0.80008   1.000
    C153    C    0.97880   0.94296   0.79970   1.000
    C154    C    0.43834   0.98726   0.84868   1.000
    C155    C    0.93870   0.98692   0.84840   1.000
    C156    C    0.42419   0.07106   0.82795   1.000
    C157    C    0.92450   0.07075   0.82786   1.000
    C158    C    0.48644   0.06631   0.71188   1.000
    C159    C    0.98679   0.06634   0.71183   1.000
    C160    C    0.24408   0.73379   0.54466   1.000
    C161    C    0.74394   0.73343   0.54474   1.000
    C162    C    0.26819   0.76607   0.46118   1.000
    C163    C    0.76812   0.76474   0.46102   1.000
    C164    C    0.12772   0.82855   0.25054   1.000
    C165    C    0.62782   0.82837   0.25074   1.000
    C166    C    0.12989   0.72999   0.24247   1.000
    C167    C    0.62991   0.72982   0.24248   1.000
    C168    C    0.23833   0.70040   0.98861   1.000
    C169    C    0.73834   0.70038   0.98865   1.000
    C170    C    0.26037   0.79100   0.01147   1.000
    C171    C    0.76038   0.79097   0.01151   1.000
    C172    C    0.12696   0.06657   0.29465   1.000
    C173    C    0.62696   0.06657   0.29473   1.000
    C174    C    0.09548   0.07895   0.14875   1.000
    C175    C    0.59546   0.07883   0.14881   1.000
    C176    C    0.20147   0.06234   0.17890   1.000
    C177    C    0.70146   0.06221   0.17903   1.000
    C178    C    0.24604   0.01729   0.23131   1.000
    C179    C    0.74601   0.01710   0.23138   1.000
    C180    C    0.27162   0.05724   0.29972   1.000
    C181    C    0.77160   0.05699   0.29982   1.000
    C182    C    0.31177   0.01318   0.34820   1.000
    C183    C    0.81169   0.01285   0.34834   1.000
    C184    C    0.32596   0.92941   0.32748   1.000
    C185    C    0.82582   0.92905   0.32763   1.000
    C186    C    0.26353   0.93405   0.21169   1.000
    C187    C    0.76349   0.93385   0.21173   1.000
    C188    C    0.50596   0.26663   0.04479   1.000
    C189    C    0.00000   0.26663   0.04478   1.000
    C190    C    0.48185   0.23525   0.96107   1.000
    C191    C    0.98186   0.23526   0.96106   1.000
    C192    C    0.12236   0.17175   0.75066   1.000
    C193    C    0.62227   0.17155   0.75074   1.000
    C194    C    0.12019   0.27030   0.74234   1.000
    C195    C    0.62014   0.27011   0.74245   1.000
    C196    C    0.01177   0.29957   0.48877   1.000
    C197    C    0.51199   0.30070   0.48909   1.000
    C198    C    0.48994   0.20980   0.51124   1.000
    C199    C    0.98979   0.20903   0.51202   1.000
    C200    C    0.37688   0.43348   0.70550   1.000
    C201    C    0.87686   0.43343   0.70550   1.000
    C202    C    0.34476   0.42141   0.85132   1.000
    C203    C    0.84487   0.42128   0.85143   1.000
    C204    C    0.45092   0.43794   0.82170   1.000
    C205    C    0.95099   0.43808   0.82164   1.000
    C206    C    0.49574   0.48273   0.76936   1.000
    C207    C    0.99573   0.48297   0.76922   1.000
    C208    C    0.02136   0.44274   0.70100   1.000
    C209    C    0.52143   0.44244   0.70122   1.000
    C210    C    0.06155   0.48668   0.65233   1.000
    C211    C    0.56171   0.48628   0.65260   1.000
    C212    C    0.07574   0.57060   0.67264   1.000
    C213    C    0.57594   0.57019   0.67292   1.000
    C214    C    0.01326   0.56634   0.78849   1.000
    C215    C    0.51333   0.56608   0.78862   1.000
    C216    C    0.25589   0.23380   0.95529   1.000
    C217    C    0.75591   0.23375   0.95535   1.000
    C218    C    0.23183   0.26607   0.03877   1.000
    C219    C    0.73185   0.26606   0.03881   1.000
    C220    C    0.37253   0.32864   0.24938   1.000
    C221    C    0.87257   0.32843   0.24950   1.000
    C222    C    0.37021   0.23008   0.25755   1.000
    C223    C    0.87024   0.22986   0.25759   1.000
    C224    C    0.26188   0.20049   0.51121   1.000
    C225    C    0.76173   0.19953   0.51111   1.000
    C226    C    0.23994   0.29097   0.48798   1.000
    C227    C    0.73993   0.29041   0.48884   1.000
    C228    C    0.37290   0.56668   0.20538   1.000
    C229    C    0.87321   0.56656   0.20562   1.000
    C230    C    0.40457   0.57934   0.35119   1.000
    C231    C    0.90514   0.57881   0.35140   1.000
    C232    C    0.29856   0.56212   0.32129   1.000
    C233    C    0.79905   0.56189   0.32176   1.000
    C234    C    0.25392   0.51724   0.26882   1.000
    C235    C    0.75432   0.51715   0.26929   1.000
    C236    C    0.22830   0.55752   0.20060   1.000
    C237    C    0.72873   0.55754   0.20114   1.000
    C238    C    0.18809   0.51366   0.15201   1.000
    C239    C    0.68850   0.51379   0.15245   1.000
    C240    C    0.17387   0.42974   0.17236   1.000
    C241    C    0.67424   0.42985   0.17269   1.000
    C242    C    0.23639   0.43385   0.28807   1.000
    C243    C    0.73672   0.43377   0.28847   1.000
    C244    C    0.99407   0.76665   0.45534   1.000
    C245    C    0.49412   0.76616   0.45522   1.000
    C246    C    0.01814   0.73522   0.53905   1.000
    C247    C    0.51810   0.73389   0.53871   1.000
    C248    C    0.37773   0.67176   0.74924   1.000
    C249    C    0.87709   0.67156   0.74941   1.000
    C250    C    0.37989   0.77032   0.75748   1.000
    C251    C    0.87974   0.77012   0.75742   1.000
    C252    C    0.48845   0.80019   0.01110   1.000
    C253    C    0.98846   0.80032   0.01109   1.000
    C254    C    0.01029   0.70949   0.98876   1.000
    C255    C    0.51029   0.70939   0.98878   1.000
    C256    C    0.11065   0.95823   0.70633   1.000
    C257    C    0.61020   0.95807   0.70650   1.000
    C258    C    0.44786   0.10755   0.76016   1.000
    C259    C    0.94818   0.10743   0.76016   1.000
    C260    C    0.13973   0.04196   0.20654   1.000
    C261    C    0.63972   0.04189   0.20663   1.000
    C262    C    0.30218   0.89285   0.25985   1.000
    C263    C    0.80209   0.89258   0.25993   1.000
    C264    C    0.38932   0.45823   0.79369   1.000
    C265    C    0.88934   0.45822   0.79373   1.000
    C266    C    0.05197   0.60741   0.74013   1.000
    C267    C    0.55212   0.60706   0.74033   1.000
    C268    C    0.36027   0.54205   0.29356   1.000
    C269    C    0.86072   0.54180   0.29383   1.000
    C270    C    0.19766   0.39285   0.23979   1.000
    C271    C    0.69797   0.39288   0.24010   1.000
    C272    C    0.08241   0.76993   0.77076   1.000
    C273    C    0.58241   0.76976   0.77083   1.000
    C274    C    0.12511   0.81854   0.91280   1.000
    C275    C    0.62509   0.81846   0.91299   1.000
    C276    C    0.19247   0.78904   0.79511   1.000
    C277    C    0.69244   0.78914   0.79519   1.000
    C278    C    0.11992   0.04896   0.54125   1.000
    C279    C    0.61951   0.04861   0.54124   1.000
    C280    C    0.13433   0.89499   0.48870   1.000
    C281    C    0.63239   0.89392   0.48949   1.000
    C282    C    0.22198   0.98482   0.52460   1.000
    C283    C    0.72094   0.98275   0.52398   1.000
    C284    C    0.18959   0.72210   0.54839   1.000
    C285    C    0.68941   0.72215   0.54858   1.000
    C286    C    0.28047   0.72255   0.60201   1.000
    C287    C    0.78032   0.72245   0.60214   1.000
    C288    C    0.32230   0.78108   0.45830   1.000
    C289    C    0.82242   0.77805   0.45773   1.000
    C290    C    0.23236   0.77455   0.40270   1.000
    C291    C    0.73224   0.77420   0.40275   1.000
    C292    C    0.13198   0.86218   0.32064   1.000
    C293    C    0.63209   0.86182   0.32092   1.000
    C294    C    0.12319   0.87078   0.18335   1.000
    C295    C    0.62333   0.87071   0.18360   1.000
    C296    C    0.13015   0.70085   0.16993   1.000
    C297    C    0.63016   0.70078   0.16991   1.000
    C298    C    0.13249   0.68854   0.31015   1.000
    C299    C    0.63249   0.68824   0.31008   1.000
    C300    C    0.27578   0.65082   0.95464   1.000
    C301    C    0.77580   0.65079   0.95471   1.000
    C302    C    0.18709   0.68131   0.00717   1.000
    C303    C    0.68710   0.68128   0.00721   1.000
    C304    C    0.22470   0.83708   0.05195   1.000
    C305    C    0.72471   0.83706   0.05196   1.000
    C306    C    0.31123   0.81087   0.99067   1.000
    C307    C    0.81124   0.81086   0.99071   1.000
    C308    C    0.16759   0.23021   0.27073   1.000
    C309    C    0.66762   0.23021   0.27074   1.000
    C310    C    0.12489   0.18146   0.41293   1.000
    C311    C    0.62494   0.18155   0.41297   1.000
    C312    C    0.05754   0.21088   0.29519   1.000
    C313    C    0.55758   0.21089   0.29521   1.000
    C314    C    0.13055   0.95144   0.04109   1.000
    C315    C    0.63058   0.95129   0.04122   1.000
    C316    C    0.11757   0.10622   0.98952   1.000
    C317    C    0.61753   0.10599   0.98950   1.000
    C318    C    0.02908   0.01710   0.02392   1.000
    C319    C    0.52908   0.01676   0.02398   1.000
    C320    C    0.06050   0.27788   0.04858   1.000
    C321    C    0.56050   0.27783   0.04860   1.000
    C322    C    0.46955   0.27768   0.10217   1.000
    C323    C    0.96958   0.27763   0.10219   1.000
    C324    C    0.42755   0.22191   0.95782   1.000
    C325    C    0.92757   0.22190   0.95782   1.000
    C326    C    0.01775   0.22582   0.90278   1.000
    C327    C    0.51776   0.22578   0.90279   1.000
    C328    C    0.11798   0.13837   0.82089   1.000
    C329    C    0.61796   0.13812   0.82096   1.000
    C330    C    0.12703   0.12941   0.68358   1.000
    C331    C    0.62683   0.12923   0.68362   1.000
    C332    C    0.11997   0.29933   0.66973   1.000
    C333    C    0.61990   0.29914   0.66986   1.000
    C334    C    0.11754   0.31188   0.80990   1.000
    C335    C    0.61756   0.31169   0.81002   1.000
    C336    C    0.47453   0.35092   0.45595   1.000
    C337    C    0.97432   0.34902   0.45467   1.000
    C338    C    0.06300   0.31879   0.50715   1.000
    C339    C    0.56336   0.31922   0.50737   1.000
    C340    C    0.02561   0.16295   0.55217   1.000
    C341    C    0.52546   0.16341   0.55168   1.000
    C342    C    0.43923   0.18979   0.48990   1.000
    C343    C    0.93881   0.18917   0.49193   1.000
    C344    C    0.41757   0.26994   0.72922   1.000
    C345    C    0.91760   0.26989   0.72926   1.000
    C346    C    0.37494   0.31858   0.58700   1.000
    C347    C    0.87492   0.31859   0.58718   1.000
    C348    C    0.30752   0.28900   0.70486   1.000
    C349    C    0.80753   0.28894   0.70490   1.000
    C350    C    0.38006   0.54902   0.95873   1.000
    C351    C    0.88011   0.54898   0.95883   1.000
    C352    C    0.36555   0.39491   0.01100   1.000
    C353    C    0.86557   0.39488   0.01116   1.000
    C354    C    0.27792   0.48474   0.97540   1.000
    C355    C    0.77796   0.48470   0.97540   1.000
    C356    C    0.31037   0.22208   0.95157   1.000
    C357    C    0.81038   0.22208   0.95160   1.000
    C358    C    0.21950   0.22265   0.89790   1.000
    C359    C    0.71950   0.22255   0.89799   1.000
    C360    C    0.17775   0.28109   0.04165   1.000
    C361    C    0.67776   0.28107   0.04169   1.000
    C362    C    0.26767   0.27448   0.09727   1.000
    C363    C    0.76769   0.27450   0.09731   1.000
    C364    C    0.36831   0.36221   0.17922   1.000
    C365    C    0.86854   0.36205   0.17934   1.000
    C366    C    0.37715   0.37090   0.31651   1.000
    C367    C    0.87702   0.37063   0.31668   1.000
    C368    C    0.36993   0.20100   0.33013   1.000
    C369    C    0.86999   0.20067   0.33014   1.000
    C370    C    0.36748   0.18857   0.18994   1.000
    C371    C    0.86749   0.18844   0.18994   1.000
    C372    C    0.22431   0.15098   0.54530   1.000
    C373    C    0.72415   0.14951   0.54448   1.000
    C374    C    0.31309   0.18132   0.49284   1.000
    C375    C    0.81302   0.18073   0.49270   1.000
    C376    C    0.27580   0.33706   0.44768   1.000
    C377    C    0.77563   0.33662   0.44836   1.000
    C378    C    0.18902   0.31082   0.50824   1.000
    C379    C    0.68924   0.31052   0.51006   1.000
    C380    C    0.33243   0.73027   0.22917   1.000
    C381    C    0.83244   0.73009   0.22925   1.000
    C382    C    0.37506   0.68154   0.08700   1.000
    C383    C    0.87510   0.68145   0.08713   1.000
    C384    C    0.44246   0.71096   0.20474   1.000
    C385    C    0.94250   0.71104   0.20484   1.000
    C386    C    0.36980   0.45150   0.45879   1.000
    C387    C    0.86999   0.45095   0.45885   1.000
    C388    C    0.38247   0.60624   0.51042   1.000
    C389    C    0.88455   0.60495   0.51126   1.000
    C390    C    0.47118   0.51792   0.47598   1.000
    C391    C    0.97213   0.51521   0.47534   1.000
    C392    C    0.43964   0.77790   0.45148   1.000
    C393    C    0.93958   0.77791   0.45149   1.000
    C394    C    0.03052   0.77768   0.39790   1.000
    C395    C    0.53054   0.77735   0.39784   1.000
    C396    C    0.07241   0.72184   0.54200   1.000
    C397    C    0.57219   0.71890   0.54160   1.000
    C398    C    0.48221   0.72548   0.59700   1.000
    C399    C    0.98222   0.72572   0.59732   1.000
    C400    C    0.38184   0.63834   0.67903   1.000
    C401    C    0.88053   0.63786   0.67924   1.000
    C402    C    0.37333   0.62942   0.81640   1.000
    C403    C    0.87298   0.62938   0.81668   1.000
    C404    C    0.38014   0.79939   0.83000   1.000
    C405    C    0.88020   0.79931   0.82994   1.000
    C406    C    0.38251   0.81189   0.68987   1.000
    C407    C    0.88252   0.81149   0.68970   1.000
    C408    C    0.02599   0.85031   0.04447   1.000
    C409    C    0.52600   0.85010   0.04468   1.000
    C410    C    0.43720   0.81907   0.99268   1.000
    C411    C    0.93718   0.81911   0.99268   1.000
    C412    C    0.47460   0.66323   0.94830   1.000
    C413    C    0.97462   0.66328   0.94833   1.000
    C414    C    0.06100   0.68944   0.00995   1.000
    C415    C    0.56100   0.68934   0.00995   1.000
    O416    O    0.15636   0.74045   0.02893   1.000
    O417    O    0.21271   0.69085   0.99789   1.000
    O418    O    0.65637   0.74038   0.02903   1.000
    O419    O    0.71272   0.69083   0.99793   1.000
    O420    O    0.59332   0.74441   0.03040   1.000
    O421    O    0.53565   0.69937   0.99937   1.000
    O422    O    0.09331   0.74451   0.03033   1.000
    O423    O    0.03564   0.69946   0.99935   1.000
    O424    O    0.36683   0.33158   0.03868   1.000
    O425    O    0.35506   0.43139   0.98383   1.000
    O426    O    0.00723   0.82531   0.02778   1.000
    O427    O    0.99938   0.75490   0.99993   1.000
    O428    O    0.96282   0.80971   0.00189   1.000
    O429    O    0.50723   0.82514   0.02789   1.000
    O430    O    0.49937   0.75479   0.99994   1.000
    O431    O    0.46283   0.80963   0.00189   1.000
    O432    O    0.86686   0.33154   0.03858   1.000
    O433    O    0.85510   0.43136   0.98395   1.000
    O434    O    0.24254   0.81404   0.03171   1.000
    O435    O    0.24935   0.74570   0.00004   1.000
    O436    O    0.28580   0.80093   0.00107   1.000
    O437    O    0.74255   0.81402   0.03173   1.000
    O438    O    0.74936   0.74568   0.00008   1.000
    O439    O    0.78581   0.80091   0.00111   1.000
    O440    O    0.02437   0.98544   0.02869   1.000
    O441    O    0.06242   0.02510   0.03356   1.000
    O442    O    0.52439   0.98510   0.02880   1.000
    O443    O    0.56242   0.02484   0.03365   1.000
    O444    O    0.20479   0.27358   0.04021   1.000
    O445    O    0.24975   0.27028   0.06802   1.000
    O446    O    0.24386   0.24993   0.99703   1.000
    O447    O    0.70481   0.27356   0.04025   1.000
    O448    O    0.74977   0.27028   0.06806   1.000
    O449    O    0.74388   0.24990   0.99708   1.000
    O450    O    0.11316   0.99228   0.04215   1.000
    O451    O    0.12809   0.87552   0.04589   1.000
    O452    O    0.61317   0.99210   0.04227   1.000
    O453    O    0.62811   0.87539   0.04603   1.000
    O454    O    0.14802   0.25690   0.98765   1.000
    O455    O    0.64803   0.25681   0.98771   1.000
    O456    O    0.09562   0.05603   0.09598   1.000
    O457    O    0.10667   0.06967   0.01636   1.000
    O458    O    0.59561   0.05587   0.09606   1.000
    O459    O    0.60664   0.06945   0.01641   1.000
    O460    O    0.03025   0.27226   0.04668   1.000
    O461    O    0.98479   0.27213   0.07348   1.000
    O462    O    0.99093   0.25095   0.00292   1.000
    O463    O    0.53323   0.27223   0.04670   1.000
    O464    O    0.48775   0.27216   0.07348   1.000
    O465    O    0.49390   0.25094   0.00293   1.000
    O466    O    0.08939   0.25529   0.99111   1.000
    O467    O    0.58940   0.25519   0.99117   1.000
    O468    O    0.17516   0.81833   0.05133   1.000
    O469    O    0.12441   0.83518   0.11703   1.000
    O470    O    0.12537   0.80907   0.98175   1.000
    O471    O    0.67518   0.81828   0.05140   1.000
    O472    O    0.62449   0.83510   0.11723   1.000
    O473    O    0.62536   0.80897   0.98192   1.000
    O474    O    0.81792   0.27135   0.08166   1.000
    O475    O    0.86834   0.31513   0.12267   1.000
    O476    O    0.86782   0.22832   0.12797   1.000
    O477    O    0.83926   0.24514   0.00880   1.000
    O478    O    0.89786   0.24505   0.01191   1.000
    O479    O    0.31788   0.27137   0.08181   1.000
    O480    O    0.36821   0.31523   0.12279   1.000
    O481    O    0.36779   0.22841   0.12815   1.000
    O482    O    0.33923   0.24516   0.00897   1.000
    O483    O    0.39783   0.24508   0.01209   1.000
    O484    O    0.37615   0.68173   0.13339   1.000
    O485    O    0.37534   0.69117   0.01809   1.000
    O486    O    0.87621   0.68163   0.13352   1.000
    O487    O    0.87537   0.69113   0.01820   1.000
    O488    O    0.17811   0.52940   0.12563   1.000
    O489    O    0.67854   0.52956   0.12608   1.000
    O490    O    0.20281   0.05131   0.14688   1.000
    O491    O    0.70280   0.05118   0.14698   1.000
    O492    O    0.15924   0.40959   0.15449   1.000
    O493    O    0.65961   0.40973   0.15479   1.000
    O494    O    0.09920   0.11367   0.14631   1.000
    O495    O    0.59919   0.11355   0.14635   1.000
    O496    O    0.07413   0.07345   0.16273   1.000
    O497    O    0.11761   0.06045   0.17764   1.000
    O498    O    0.57412   0.07336   0.16279   1.000
    O499    O    0.61759   0.06036   0.17772   1.000
    O500    O    0.18098   0.47170   0.16218   1.000
    O501    O    0.20820   0.53559   0.17630   1.000
    O502    O    0.68137   0.47182   0.16257   1.000
    O503    O    0.70861   0.53566   0.17680   1.000
    O504    O    0.75588   0.91667   0.18440   1.000
    O505    O    0.25591   0.91684   0.18438   1.000
    O506    O    0.35621   0.55198   0.18591   1.000
    O507    O    0.85653   0.55179   0.18619   1.000
    O508    O    0.63004   0.71530   0.20620   1.000
    O509    O    0.13002   0.71542   0.20620   1.000
    O510    O    0.18576   0.41129   0.20608   1.000
    O511    O    0.68610   0.41136   0.20639   1.000
    O512    O    0.20396   0.09734   0.18059   1.000
    O513    O    0.17060   0.05215   0.19272   1.000
    O514    O    0.22375   0.03982   0.20511   1.000
    O515    O    0.70397   0.09720   0.18069   1.000
    O516    O    0.67059   0.05205   0.19283   1.000
    O517    O    0.72374   0.03965   0.20521   1.000
    O518    O    0.37042   0.34543   0.21430   1.000
    O519    O    0.87055   0.34524   0.21442   1.000
    O520    O    0.40985   0.69644   0.19226   1.000
    O521    O    0.37507   0.62430   0.19258   1.000
    O522    O    0.35483   0.70609   0.20447   1.000
    O523    O    0.90991   0.69643   0.19238   1.000
    O524    O    0.87526   0.62419   0.19277   1.000
    O525    O    0.85487   0.70595   0.20458   1.000
    O526    O    0.12546   0.84966   0.21694   1.000
    O527    O    0.62557   0.84954   0.21717   1.000
    O528    O    0.23402   0.59064   0.19320   1.000
    O529    O    0.73447   0.59066   0.19376   1.000
    O530    O    0.39341   0.55122   0.19679   1.000
    O531    O    0.89374   0.55119   0.19698   1.000
    O532    O    0.86887   0.20915   0.22376   1.000
    O533    O    0.36884   0.20932   0.22375   1.000
    O534    O    0.24111   0.53738   0.23471   1.000
    O535    O    0.74153   0.53735   0.23522   1.000
    O536    O    0.13713   0.00774   0.20422   1.000
    O537    O    0.63712   0.00765   0.20438   1.000
    O538    O    0.44352   0.72662   0.23081   1.000
    O539    O    0.94356   0.72661   0.23096   1.000
    O540    O    0.36659   0.55436   0.24947   1.000
    O541    O    0.86696   0.55418   0.24973   1.000
    O542    O    0.13334   0.05427   0.25060   1.000
    O543    O    0.63334   0.05423   0.25068   1.000
    O544    O    0.25478   0.97567   0.22150   1.000
    O545    O    0.28286   0.91345   0.23577   1.000
    O546    O    0.75475   0.97547   0.22156   1.000
    O547    O    0.78279   0.91321   0.23583   1.000
    O548    O    0.25883   0.03727   0.26552   1.000
    O549    O    0.75880   0.03704   0.26560   1.000
    O550    O    0.19158   0.36051   0.24720   1.000
    O551    O    0.21702   0.41335   0.26393   1.000
    O552    O    0.69185   0.36054   0.24748   1.000
    O553    O    0.71734   0.41332   0.26428   1.000
    O554    O    0.12880   0.77927   0.24650   1.000
    O555    O    0.13119   0.70926   0.27631   1.000
    O556    O    0.62887   0.77910   0.24661   1.000
    O557    O    0.63120   0.70903   0.27628   1.000
    O558    O    0.05649   0.22637   0.26902   1.000
    O559    O    0.55653   0.22638   0.26903   1.000
    O560    O    0.30826   0.86057   0.25235   1.000
    O561    O    0.80817   0.86028   0.25242   1.000
    O562    O    0.37137   0.27936   0.25346   1.000
    O563    O    0.37484   0.34977   0.28295   1.000
    O564    O    0.87141   0.27914   0.25355   1.000
    O565    O    0.87479   0.34953   0.28309   1.000
    O566    O    0.12985   0.84536   0.28559   1.000
    O567    O    0.62996   0.84510   0.28583   1.000
    O568    O    0.37007   0.21554   0.29384   1.000
    O569    O    0.87012   0.21526   0.29386   1.000
    O570    O    0.31407   0.91113   0.29367   1.000
    O571    O    0.81396   0.91081   0.29378   1.000
    O572    O    0.24515   0.47554   0.27845   1.000
    O573    O    0.27624   0.53968   0.29506   1.000
    O574    O    0.74552   0.47546   0.27888   1.000
    O575    O    0.77669   0.53952   0.29552   1.000
    O576    O    0.14516   0.20601   0.29544   1.000
    O577    O    0.64519   0.20603   0.29546   1.000
    O578    O    0.24402   0.41650   0.31529   1.000
    O579    O    0.74432   0.41639   0.31568   1.000
    O580    O    0.36291   0.50786   0.29586   1.000
    O581    O    0.32941   0.55209   0.30742   1.000
    O582    O    0.38242   0.56070   0.32238   1.000
    O583    O    0.86330   0.50758   0.29605   1.000
    O584    O    0.82988   0.55184   0.30780   1.000
    O585    O    0.88293   0.56030   0.32262   1.000
    O586    O    0.10642   0.05108   0.30318   1.000
    O587    O    0.12484   0.12419   0.30741   1.000
    O588    O    0.14360   0.05190   0.31420   1.000
    O589    O    0.60642   0.05110   0.30328   1.000
    O590    O    0.62485   0.12421   0.30746   1.000
    O591    O    0.64360   0.05191   0.31428   1.000
    O592    O    0.09013   0.19635   0.30768   1.000
    O593    O    0.59016   0.19637   0.30770   1.000
    O594    O    0.26592   0.09030   0.30729   1.000
    O595    O    0.29169   0.03521   0.32396   1.000
    O596    O    0.76592   0.09005   0.30739   1.000
    O597    O    0.79164   0.03492   0.32408   1.000
    O598    O    0.63209   0.72782   0.37189   1.000
    O599    O    0.13219   0.72838   0.37191   1.000
    O600    O    0.37596   0.33534   0.38286   1.000
    O601    O    0.87579   0.33486   0.38306   1.000
    O602    O    0.29607   0.59711   0.31977   1.000
    O603    O    0.79658   0.59689   0.32028   1.000
    O604    O    0.12380   0.18164   0.36655   1.000
    O605    O    0.62384   0.18170   0.36658   1.000
    O606    O    0.13193   0.81520   0.37715   1.000
    O607    O    0.63190   0.81461   0.37731   1.000
    O608    O    0.29723   0.55093   0.35330   1.000
    O609    O    0.79776   0.55062   0.35375   1.000
    O610    O    0.92644   0.57368   0.33722   1.000
    O611    O    0.42590   0.57401   0.33714   1.000
    O612    O    0.31886   0.97130   0.33784   1.000
    O613    O    0.34055   0.90918   0.34529   1.000
    O614    O    0.81876   0.97095   0.33799   1.000
    O615    O    0.84040   0.90879   0.34542   1.000
    O616    O    0.32174   0.02879   0.37467   1.000
    O617    O    0.82166   0.02845   0.37481   1.000
    O618    O    0.40079   0.61403   0.35363   1.000
    O619    O    0.40451   0.55637   0.40394   1.000
    O620    O    0.90131   0.61347   0.35413   1.000
    O621    O    0.90530   0.55546   0.40408   1.000
    O622    O    0.51233   0.77176   0.42653   1.000
    O623    O    0.01229   0.77216   0.42662   1.000
    O624    O    0.18212   0.77139   0.41818   1.000
    O625    O    0.25027   0.77031   0.43194   1.000
    O626    O    0.68197   0.77080   0.41823   1.000
    O627    O    0.75018   0.76947   0.43189   1.000
    O628    O    0.12474   0.19112   0.48181   1.000
    O629    O    0.62472   0.19102   0.48189   1.000
    O630    O    0.13311   0.83160   0.46118   1.000
    O631    O    0.10215   0.74503   0.48783   1.000
    O632    O    0.16074   0.74516   0.49103   1.000
    O633    O    0.63205   0.83066   0.46159   1.000
    O634    O    0.60194   0.74315   0.48765   1.000
    O635    O    0.66055   0.74478   0.49114   1.000
    O636    O    0.32528   0.31842   0.44844   1.000
    O637    O    0.25787   0.31402   0.46783   1.000
    O638    O    0.82509   0.31786   0.44889   1.000
    O639    O    0.75778   0.31351   0.46860   1.000
    O640    O    0.37228   0.37564   0.45399   1.000
    O641    O    0.40700   0.24479   0.46955   1.000
    O642    O    0.34393   0.24055   0.47102   1.000
    O643    O    0.37485   0.30918   0.51810   1.000
    O644    O    0.87227   0.37502   0.45414   1.000
    O645    O    0.90668   0.24413   0.47068   1.000
    O646    O    0.84378   0.23992   0.47107   1.000
    O647    O    0.87474   0.30884   0.51831   1.000
    O648    O    0.46688   0.77203   0.45335   1.000
    O649    O    0.41068   0.75531   0.50887   1.000
    O650    O    0.96682   0.77228   0.45342   1.000
    O651    O    0.91066   0.75480   0.50889   1.000
    O652    O    0.99304   0.32430   0.47172   1.000
    O653    O    0.50611   0.75002   0.49697   1.000
    O654    O    0.00610   0.75094   0.49720   1.000
    O655    O    0.49326   0.32581   0.47252   1.000
    O656    O    0.38712   0.49245   0.45774   1.000
    O657    O    0.43781   0.52567   0.46633   1.000
    O658    O    0.39346   0.56983   0.48355   1.000
    O659    O    0.88773   0.49153   0.45780   1.000
    O660    O    0.93880   0.52365   0.46605   1.000
    O661    O    0.89501   0.56853   0.48401   1.000
    O662    O    0.79527   0.77140   0.45938   1.000
    O663    O    0.85208   0.75487   0.51200   1.000
    O664    O    0.29525   0.77357   0.45974   1.000
    O665    O    0.35201   0.75690   0.51228   1.000
    O666    O    0.75603   0.74909   0.50288   1.000
    O667    O    0.25614   0.74993   0.50292   1.000
    O668    O    0.97663   0.48352   0.47037   1.000
    O669    O    0.47596   0.48631   0.47134   1.000
    O670    O    0.21448   0.30089   0.49811   1.000
    O671    O    0.25091   0.24573   0.49960   1.000
    O672    O    0.14481   0.93141   0.51598   1.000
    O673    O    0.03738   0.30918   0.49796   1.000
    O674    O    0.00078   0.25430   0.50039   1.000
    O675    O    0.71458   0.30046   0.49945   1.000
    O676    O    0.75083   0.24497   0.49998   1.000
    O677    O    0.53768   0.30996   0.49823   1.000
    O678    O    0.50096   0.25525   0.50017   1.000
    O679    O    0.64330   0.93039   0.51638   1.000
    O680    O    0.46458   0.19979   0.50057   1.000
    O681    O    0.96430   0.19910   0.50198   1.000
    O682    O    0.78737   0.19013   0.50191   1.000
    O683    O    0.28748   0.19090   0.50203   1.000
    O684    O    0.09380   0.25978   0.52892   1.000
    O685    O    0.59394   0.25985   0.52908   1.000
    O686    O    0.15681   0.25580   0.52946   1.000
    O687    O    0.65687   0.25550   0.53043   1.000
    O688    O    0.38210   0.66948   0.53834   1.000
    O689    O    0.74294   0.17452   0.52780   1.000
    O690    O    0.24309   0.17573   0.52826   1.000
    O691    O    0.50770   0.18660   0.53146   1.000
    O692    O    0.88314   0.66832   0.53877   1.000
    O693    O    0.00770   0.18599   0.53209   1.000
    O694    O    0.72567   0.01439   0.52876   1.000
    O695    O    0.68758   0.97480   0.53363   1.000
    O696    O    0.22650   0.01654   0.52960   1.000
    O697    O    0.18864   0.97633   0.53392   1.000
    O698    O    0.54514   0.72639   0.54016   1.000
    O699    O    0.50015   0.72968   0.56785   1.000
    O700    O    0.04527   0.72853   0.54053   1.000
    O701    O    0.00018   0.73047   0.56818   1.000
    O702    O    0.63687   0.00773   0.54226   1.000
    O703    O    0.62201   0.12455   0.54602   1.000
    O704    O    0.13760   0.00840   0.54225   1.000
    O705    O    0.12226   0.12487   0.54597   1.000
    O706    O    0.15506   0.94443   0.59587   1.000
    O707    O    0.65428   0.94384   0.59601   1.000
    O708    O    0.21684   0.72795   0.54653   1.000
    O709    O    0.26228   0.72817   0.57334   1.000
    O710    O    0.71667   0.72779   0.54666   1.000
    O711    O    0.76213   0.72794   0.57344   1.000
    O712    O    0.07511   0.18186   0.55143   1.000
    O713    O    0.12582   0.16509   0.61713   1.000
    O714    O    0.57499   0.18195   0.55124   1.000
    O715    O    0.62567   0.16486   0.61721   1.000
    O716    O    0.43196   0.72910   0.58163   1.000
    O717    O    0.38178   0.68553   0.62265   1.000
    O718    O    0.38211   0.77230   0.62807   1.000
    O719    O    0.93198   0.72871   0.58180   1.000
    O720    O    0.88113   0.68478   0.62276   1.000
    O721    O    0.88213   0.77159   0.62799   1.000
    O722    O    0.37383   0.31841   0.63344   1.000
    O723    O    0.87383   0.31838   0.63357   1.000
    O724    O    0.07154   0.47096   0.62594   1.000
    O725    O    0.57172   0.47053   0.62625   1.000
    O726    O    0.04756   0.94932   0.64675   1.000
    O727    O    0.54710   0.94899   0.64706   1.000
    O728    O    0.09037   0.59078   0.65476   1.000
    O729    O    0.59058   0.59034   0.65504   1.000
    O730    O    0.15084   0.88639   0.64579   1.000
    O731    O    0.65048   0.88613   0.64629   1.000
    O732    O    0.17617   0.92601   0.66263   1.000
    O733    O    0.13274   0.93963   0.67741   1.000
    O734    O    0.67570   0.92611   0.66270   1.000
    O735    O    0.63227   0.93944   0.67762   1.000
    O736    O    0.06865   0.52864   0.66249   1.000
    O737    O    0.04146   0.46471   0.67667   1.000
    O738    O    0.56883   0.52823   0.66276   1.000
    O739    O    0.54157   0.46436   0.67691   1.000
    O740    O    0.49403   0.08350   0.68452   1.000
    O741    O    0.99437   0.08359   0.68450   1.000
    O742    O    0.89356   0.44817   0.68605   1.000
    O743    O    0.39360   0.44821   0.68607   1.000
    O744    O    0.12008   0.28481   0.70604   1.000
    O745    O    0.62002   0.28462   0.70615   1.000
    O746    O    0.06386   0.58900   0.70639   1.000
    O747    O    0.56403   0.58862   0.70663   1.000
    O748    O    0.04633   0.90315   0.68033   1.000
    O749    O    0.07976   0.94818   0.69255   1.000
    O750    O    0.02660   0.96060   0.70503   1.000
    O751    O    0.37979   0.65505   0.71414   1.000
    O752    O    0.54588   0.90293   0.68077   1.000
    O753    O    0.57932   0.94799   0.69280   1.000
    O754    O    0.52618   0.96049   0.70532   1.000
    O755    O    0.87881   0.65471   0.71432   1.000
    O756    O    0.34012   0.30361   0.69237   1.000
    O757    O    0.37480   0.37585   0.69269   1.000
    O758    O    0.39515   0.29409   0.70455   1.000
    O759    O    0.84013   0.30356   0.69243   1.000
    O760    O    0.87480   0.37580   0.69273   1.000
    O761    O    0.89517   0.29403   0.70461   1.000
    O762    O    0.12470   0.15058   0.71712   1.000
    O763    O    0.62455   0.15039   0.71718   1.000
    O764    O    0.01566   0.40963   0.69362   1.000
    O765    O    0.51569   0.40934   0.69382   1.000
    O766    O    0.35637   0.44889   0.69683   1.000
    O767    O    0.85634   0.44882   0.69689   1.000
    O768    O    0.88113   0.79080   0.72356   1.000
    O769    O    0.38120   0.79110   0.72368   1.000
    O770    O    0.00855   0.46286   0.73511   1.000
    O771    O    0.50858   0.46259   0.73529   1.000
    O772    O    0.11329   0.99246   0.70408   1.000
    O773    O    0.61286   0.99229   0.70425   1.000
    O774    O    0.30645   0.27339   0.73097   1.000
    O775    O    0.80647   0.27334   0.73100   1.000
    O776    O    0.38310   0.44585   0.74960   1.000
    O777    O    0.88310   0.44583   0.74962   1.000
    O778    O    0.11697   0.94586   0.75040   1.000
    O779    O    0.61659   0.94574   0.75060   1.000
    O780    O    0.99556   0.02470   0.72156   1.000
    O781    O    0.96749   0.08688   0.73599   1.000
    O782    O    0.49519   0.02468   0.72171   1.000
    O783    O    0.46715   0.08693   0.73602   1.000
    O784    O    0.99156   0.96301   0.76550   1.000
    O785    O    0.49117   0.96311   0.76580   1.000
    O786    O    0.05809   0.63973   0.74754   1.000
    O787    O    0.03261   0.58687   0.76431   1.000
    O788    O    0.55822   0.63939   0.74772   1.000
    O789    O    0.53272   0.58657   0.76448   1.000
    O790    O    0.12127   0.22102   0.74650   1.000
    O791    O    0.11887   0.29109   0.77612   1.000
    O792    O    0.62121   0.22083   0.74659   1.000
    O793    O    0.61885   0.29090   0.77624   1.000
    O794    O    0.19352   0.77354   0.76895   1.000
    O795    O    0.69350   0.77363   0.76904   1.000
    O796    O    0.44178   0.13984   0.75264   1.000
    O797    O    0.94206   0.13970   0.75267   1.000
    O798    O    0.37881   0.72104   0.75336   1.000
    O799    O    0.37553   0.65059   0.78282   1.000
    O800    O    0.87842   0.72084   0.75342   1.000
    O801    O    0.87504   0.65047   0.78304   1.000
    O802    O    0.12017   0.15506   0.78578   1.000
    O803    O    0.62012   0.15484   0.78585   1.000
    O804    O    0.87997   0.78472   0.79368   1.000
    O805    O    0.38001   0.78485   0.79374   1.000
    O806    O    0.43602   0.08931   0.79405   1.000
    O807    O    0.93634   0.08909   0.79401   1.000
    O808    O    0.00449   0.52466   0.77885   1.000
    O809    O    0.97336   0.46053   0.79543   1.000
    O810    O    0.50453   0.52440   0.77899   1.000
    O811    O    0.47333   0.46034   0.79553   1.000
    O812    O    0.10486   0.79408   0.79543   1.000
    O813    O    0.60483   0.79395   0.79552   1.000
    O814    O    0.00565   0.58366   0.81573   1.000
    O815    O    0.50570   0.58341   0.81584   1.000
    O816    O    0.38678   0.49246   0.79587   1.000
    O817    O    0.42012   0.44808   0.80769   1.000
    O818    O    0.36704   0.43982   0.82250   1.000
    O819    O    0.88675   0.49243   0.79594   1.000
    O820    O    0.92016   0.44815   0.80768   1.000
    O821    O    0.86710   0.43975   0.82258   1.000
    O822    O    0.14386   0.94890   0.80299   1.000
    O823    O    0.12531   0.87587   0.80728   1.000
    O824    O    0.10667   0.94824   0.81400   1.000
    O825    O    0.64351   0.94891   0.80318   1.000
    O826    O    0.62512   0.87578   0.80745   1.000
    O827    O    0.60634   0.94805   0.81426   1.000
    O828    O    0.15990   0.80363   0.80760   1.000
    O829    O    0.65985   0.80364   0.80770   1.000
    O830    O    0.98449   0.90987   0.80720   1.000
    O831    O    0.95875   0.96494   0.82405   1.000
    O832    O    0.48410   0.91009   0.80765   1.000
    O833    O    0.45838   0.96521   0.82438   1.000
    O834    O    0.11791   0.27229   0.87177   1.000
    O835    O    0.61793   0.27212   0.87187   1.000
    O836    O    0.37447   0.66511   0.88278   1.000
    O837    O    0.87431   0.66509   0.88298   1.000
    O838    O    0.95346   0.40309   0.82012   1.000
    O839    O    0.45336   0.40294   0.82020   1.000
    O840    O    0.12622   0.81839   0.86645   1.000
    O841    O    0.62617   0.81830   0.86660   1.000
    O842    O    0.11813   0.18554   0.87727   1.000
    O843    O    0.61813   0.18533   0.87735   1.000
    O844    O    0.95226   0.44928   0.85362   1.000
    O845    O    0.45218   0.44913   0.85371   1.000
    O846    O    0.32349   0.42673   0.83712   1.000
    O847    O    0.82358   0.42652   0.83725   1.000
    O848    O    0.93160   0.02883   0.83813   1.000
    O849    O    0.90992   0.09095   0.84572   1.000
    O850    O    0.43127   0.02916   0.83831   1.000
    O851    O    0.40962   0.09132   0.84577   1.000
    O852    O    0.92875   0.97124   0.87487   1.000
    O853    O    0.42840   0.97166   0.87519   1.000
    O854    O    0.34848   0.38671   0.85397   1.000
    O855    O    0.34466   0.44464   0.90399   1.000
    O856    O    0.84864   0.38660   0.85409   1.000
    O857    O    0.84474   0.44456   0.90409   1.000
    O858    O    0.23770   0.22822   0.92660   1.000
    O859    O    0.73770   0.22815   0.92667   1.000
    O860    O    0.06802   0.22926   0.91821   1.000
    O861    O    0.99980   0.23054   0.93192   1.000
    O862    O    0.56803   0.22916   0.91826   1.000
    O863    O    0.49980   0.23052   0.93193   1.000
    O864    O    0.11793   0.16946   0.96158   1.000
    O865    O    0.61792   0.16927   0.96162   1.000
    O866    O    0.42511   0.68202   0.94873   1.000
    O867    O    0.49245   0.68631   0.96854   1.000
    O868    O    0.92513   0.68205   0.94881   1.000
    O869    O    0.99245   0.68638   0.96855   1.000
    O870    O    0.37784   0.62491   0.95395   1.000
    O871    O    0.34343   0.75584   0.96992   1.000
    O872    O    0.40641   0.75994   0.97093   1.000
    O873    O    0.87787   0.62490   0.95405   1.000
    O874    O    0.84344   0.75584   0.96999   1.000
    O875    O    0.90641   0.75996   0.97098   1.000
    O876    O    0.28313   0.22794   0.95343   1.000
    O877    O    0.78314   0.22791   0.95348   1.000
    O878    O    0.25705   0.67561   0.97163   1.000
    O879    O    0.75707   0.67558   0.97168   1.000
    O880    O    0.36231   0.50845   0.95770   1.000
    O881    O    0.31124   0.47631   0.96603   1.000
    O882    O    0.86237   0.50841   0.95778   1.000
    O883    O    0.81129   0.47627   0.96607   1.000
    O884    O    0.95472   0.22858   0.95944   1.000
    O885    O    0.45470   0.22858   0.95945   1.000
    O886    O    0.27343   0.51644   0.97045   1.000
    O887    O    0.77347   0.51641   0.97046   1.000
    O888    O    0.33109   0.72763   0.58414   1.000
    O889    O    0.83103   0.72707   0.58421   1.000
    O890    O    0.12789   0.75022   0.11031   1.000
    O891    O    0.62790   0.75014   0.11038   1.000
    O892    O    0.32570   0.67581   0.95191   1.000
    O893    O    0.82572   0.67580   0.95199   1.000
    O894    O    0.41882   0.27297   0.08427   1.000
    O895    O    0.91886   0.27292   0.08410   1.000
    O896    O    0.12228   0.25006   0.61021   1.000
    O897    O    0.62220   0.24981   0.61033   1.000
    O898    O    0.42465   0.32535   0.45258   1.000
    O899    O    0.92444   0.32406   0.45205   1.000
    O900    O    0.16889   0.22768   0.91577   1.000
    O901    O    0.66890   0.22755   0.91586   1.000
    O902    O    0.37235   0.25039   0.38966   1.000
    O903    O    0.87227   0.24988   0.38978   1.000
    O904    O    0.17446   0.17588   0.54799   1.000
    O905    O    0.67433   0.17500   0.54764   1.000
    O906    O    0.08121   0.77295   0.41578   1.000
    O907    O    0.58112   0.77238   0.41577   1.000
    O908    O    0.37788   0.75010   0.88959   1.000
    O909    O    0.87792   0.75006   0.88961   1.000
    O910    O    0.07581   0.82495   0.04759   1.000
    O911    O    0.57582   0.82479   0.04777   1.000
loop_
    _geom_bond_atom_site_label_1
    _geom_bond_atom_site_label_2
    _geom_bond_distance
    _geom_bond_site_symmetry_2
    _ccdc_geom_bond_type
    C302   O416      1.21449      .   S
    C2     O416      1.21449      .   S
    C302   O417      0.62692  1_554   S
    C168   O417      0.62692      .   S
    C303   O418      1.21432      .   S
    C3     O418      1.21432      .   S
    C303   O419      0.62692  1_554   S
    C169   O419      0.62692      .   S
    C415   O420      1.18247      .   S
    C3     O420      1.18247      .   S
    C415   O421      0.62895  1_554   S
    C255   O421      0.62895      .   S
    C414   O422      1.18209      .   S
    C2     O422      1.18209      .   S
    C414   O423      0.62900  1_554   S
    C254   O423      0.62900      .   S
    C352   O424      1.08327      .   S
    C8     O424      1.08327      .   S
    C352   O425      0.75845  1_554   S
    C26    O425      0.75845      .   S
    C253   O426      0.64136  1_655   S
    C408   O426      0.64136      .   S
    C253   O427      0.77201  1_554   S
    C254   O427      0.77201  1_455   S
    C253   O428      0.62710      .   S
    C411   O428      0.62710  1_556   S
    C252   O429      0.64181      .   S
    C409   O429      0.64181      .   S
    C252   O430      0.77185  1_554   S
    C255   O430      0.77185      .   S
    C252   O431      0.62694      .   S
    C410   O431      0.62694  1_556   S
    C353   O432      1.08166      .   S
    C9     O432      1.08166      .   S
    C353   O433      0.75864  1_554   S
    C27    O433      0.75864      .   S
    C170   O434      0.63690      .   S
    C304   O434      0.63690      .   S
    C170   O435      0.77166      .   S
    C168   O435      0.77166  1_556   S
    C170   O436      0.62893      .   S
    C306   O436      0.62893  1_556   S
    C171   O437      0.63689      .   S
    C305   O437      0.63689      .   S
    C171   O438      0.77162      .   S
    C169   O438      0.77162  1_556   S
    C171   O439      0.62892      .   S
    C307   O439      0.62892  1_556   S
    C318   O440      0.51024  1_545   S
    C62    O440      0.51024      .   S
    C318   O441      0.79400      .   S
    C22    O441      0.79400      .   S
    C319   O442      0.51036  1_545   S
    C63    O442      0.51036      .   S
    C319   O443      0.79401      .   S
    C23    O443      0.79401      .   S
    C218   O444      0.63465      .   S
    C360   O444      0.63465      .   S
    C218   O445      0.63248      .   S
    C362   O445      0.63248      .   S
    C218   O446      0.77356  1_554   S
    C216   O446      0.77356      .   S
    C219   O447      0.63467      .   S
    C361   O447      0.63467      .   S
    C219   O448      0.63255      .   S
    C363   O448      0.63255      .   S
    C219   O449      0.77348  1_554   S
    C217   O449      0.77348      .   S
    C314   O450      0.75193      .   S
    C22    O450      0.75193  1_545   S
    C314   O451      1.18539      .   S
    C2     O451      1.18539      .   S
    C315   O452      0.75193      .   S
    C23    O452      0.75193  1_545   S
    C315   O453      1.18504      .   S
    C3     O453      1.18504      .   S
    C360   O454      1.17415  1_554   S
    C4     O454      1.17415      .   S
    C361   O455      1.17419  1_554   S
    C5     O455      1.17419      .   S
    C22    O456      0.92742      .   S
    C174   O456      0.92742      .   S
    C22    O457      0.75869      .   S
    C316   O457      0.75869  1_556   S
    C23    O458      0.92729      .   S
    C175   O458      0.92729      .   S
    C23    O459      0.75902      .   S
    C317   O459      0.75902  1_556   S
    C189   O460      0.70325      .   S
    C320   O460      0.70325      .   S
    C189   O461      0.58899  1_455   S
    C323   O461      0.58899      .   S
    C189   O462      0.75123  1_455   S
    C191   O462      0.75123  1_556   S
    C188   O463      0.63520      .   S
    C321   O463      0.63520      .   S
    C188   O464      0.63242      .   S
    C322   O464      0.63242      .   S
    C188   O465      0.77324      .   S
    C190   O465      0.77324  1_556   S
    C320   O466      1.19836  1_554   S
    C4     O466      1.19836      .   S
    C321   O467      1.19826  1_554   S
    C5     O467      1.19826      .   S
    C2     O468      1.17800      .   S
    C304   O468      1.17800      .   S
    C2     O469      1.21048      .   S
    C294   O469      1.21048      .   S
    C2     O470      1.12794  1_554   S
    C274   O470      1.12794      .   S
    C3     O471      1.17806      .   S
    C305   O471      1.17806      .   S
    C3     O472      1.21129      .   S
    C295   O472      1.21129      .   S
    C3     O473      1.12764  1_554   S
    C275   O473      1.12764      .   S
    C9     O474      1.18602      .   S
    C363   O474      1.18602      .   S
    C9     O475      1.17410      .   S
    C365   O475      1.17410      .   S
    C9     O476      1.18111      .   S
    C371   O476      1.18111      .   S
    C9     O477      1.19698      .   S
    C357   O477      1.19698  1_556   S
    C9     O478      1.16995      .   S
    C325   O478      1.16995  1_556   S
    C8     O479      1.18514      .   S
    C362   O479      1.18514      .   S
    C8     O480      1.17162      .   S
    C364   O480      1.17162      .   S
    C8     O481      1.17826      .   S
    C370   O481      1.17826      .   S
    C8     O482      1.19937      .   S
    C356   O482      1.19937  1_556   S
    C8     O483      1.17236      .   S
    C324   O483      1.17236  1_556   S
    C382   O484      0.75275      .   S
    C28    O484      0.75275      .   S
    C382   O485      1.12770      .   S
    C14    O485      1.12770  1_556   S
    C383   O486      0.75293      .   S
    C29    O486      0.75293      .   S
    C383   O487      1.12796      .   S
    C15    O487      1.12796  1_556   S
    C138   O488      0.54416      .   S
    C238   O488      0.54416      .   S
    C139   O489      0.54417      .   S
    C239   O489      0.54417      .   S
    C78    O490      0.54792      .   S
    C176   O490      0.54792      .   S
    C79    O491      0.54838      .   S
    C177   O491      0.54838      .   S
    C140   O492      0.54398      .   S
    C240   O492      0.54398      .   S
    C141   O493      0.54394      .   S
    C241   O493      0.54394      .   S
    C74    O494      0.54841      .   S
    C174   O494      0.54841      .   S
    C75    O495      0.54842      .   S
    C175   O495      0.54842      .   S
    C174   O496      0.54818      .   S
    C72    O496      0.54818      .   S
    C174   O497      0.75033      .   S
    C260   O497      0.75033      .   S
    C175   O498      0.54816      .   S
    C73    O498      0.54816      .   S
    C175   O499      0.75036      .   S
    C261   O499      0.75036      .   S
    C238   O500      0.69290      .   S
    C240   O500      0.69290      .   S
    C238   O501      0.69739      .   S
    C236   O501      0.69739      .   S
    C239   O502      0.69290      .   S
    C241   O502      0.69290      .   S
    C239   O503      0.69757      .   S
    C237   O503      0.69757      .   S
    C87    O504      0.54662      .   S
    C187   O504      0.54662      .   S
    C86    O505      0.54664      .   S
    C186   O505      0.54664      .   S
    C126   O506      0.54770      .   S
    C228   O506      0.54770      .   S
    C127   O507      0.54769      .   S
    C229   O507      0.54769      .   S
    C297   O508      0.63047      .   S
    C167   O508      0.63047      .   S
    C296   O509      0.63052      .   S
    C166   O509      0.63052      .   S
    C240   O510      0.67585      .   S
    C270   O510      0.67585      .   S
    C241   O511      0.67571      .   S
    C271   O511      0.67571      .   S
    C176   O512      0.54819      .   S
    C76    O512      0.54819      .   S
    C176   O513      0.76222      .   S
    C260   O513      0.76222      .   S
    C176   O514      0.75356      .   S
    C178   O514      0.75356      .   S
    C177   O515      0.54818      .   S
    C77    O515      0.54818      .   S
    C177   O516      0.76212      .   S
    C261   O516      0.76212      .   S
    C177   O517      0.75338      .   S
    C179   O517      0.75338      .   S
    C364   O518      0.62790      .   S
    C220   O518      0.62790      .   S
    C365   O519      0.62789      .   S
    C221   O519      0.62789      .   S
    C28    O520      0.81047      .   S
    C384   O520      0.81047      .   S
    C28    O521      0.92161      .   S
    C228   O521      0.92161      .   S
    C28    O522      0.75432      .   S
    C380   O522      0.75432      .   S
    C29    O523      0.81039      .   S
    C385   O523      0.81039      .   S
    C29    O524      0.92176      .   S
    C229   O524      0.92176      .   S
    C29    O525      0.75427      .   S
    C381   O525      0.75427      .   S
    C294   O526      0.63837      .   S
    C164   O526      0.63837      .   S
    C295   O527      0.63843      .   S
    C165   O527      0.63843      .   S
    C136   O528      0.54507      .   S
    C236   O528      0.54507      .   S
    C137   O529      0.54515      .   S
    C237   O529      0.54515      .   S
    C124   O530      0.54854      .   S
    C228   O530      0.54854      .   S
    C125   O531      0.54854      .   S
    C229   O531      0.54854      .   S
    C371   O532      0.63715      .   S
    C223   O532      0.63715      .   S
    C370   O533      0.63720      .   S
    C222   O533      0.63720      .   S
    C236   O534      0.70118      .   S
    C234   O534      0.70118      .   S
    C237   O535      0.70103      .   S
    C235   O535      0.70103      .   S
    C64    O536      0.53722  1_565   S
    C260   O536      0.53722      .   S
    C65    O537      0.53727  1_565   S
    C261   O537      0.53727      .   S
    C384   O538      0.48867      .   S
    C116   O538      0.48867      .   S
    C385   O539      0.48869      .   S
    C117   O539      0.48869      .   S
    C228   O540      0.75432      .   S
    C268   O540      0.75432      .   S
    C229   O541      0.75451      .   S
    C269   O541      0.75451      .   S
    C260   O542      0.75430      .   S
    C172   O542      0.75430      .   S
    C261   O543      0.75435      .   S
    C173   O543      0.75435      .   S
    C186   O544      0.69706      .   S
    C178   O544      0.69706  1_545   S
    C186   O545      0.67391      .   S
    C262   O545      0.67391      .   S
    C187   O546      0.69711      .   S
    C179   O546      0.69711  1_545   S
    C187   O547      0.67396      .   S
    C263   O547      0.67396      .   S
    C178   O548      0.70096      .   S
    C180   O548      0.70096      .   S
    C179   O549      0.70093      .   S
    C181   O549      0.70093      .   S
    C270   O550      0.53587      .   S
    C122   O550      0.53587      .   S
    C270   O551      0.67389      .   S
    C242   O551      0.67389      .   S
    C271   O552      0.53588      .   S
    C123   O552      0.53588      .   S
    C271   O553      0.67410      .   S
    C243   O553      0.67410      .   S
    C166   O554      0.77015      .   S
    C164   O554      0.77015      .   S
    C166   O555      0.63723      .   S
    C298   O555      0.63723      .   S
    C167   O556      0.77019      .   S
    C165   O556      0.77019      .   S
    C167   O557      0.63716      .   S
    C299   O557      0.63716      .   S
    C60    O558      0.48867      .   S
    C312   O558      0.48867      .   S
    C61    O559      0.48870      .   S
    C313   O559      0.48870      .   S
    C66    O560      0.53576      .   S
    C262   O560      0.53576      .   S
    C67    O561      0.53590      .   S
    C263   O561      0.53590      .   S
    C220   O562      0.77020      .   S
    C222   O562      0.77020      .   S
    C220   O563      0.63833      .   S
    C366   O563      0.63833      .   S
    C221   O564      0.77020      .   S
    C223   O564      0.77020      .   S
    C221   O565      0.63827      .   S
    C367   O565      0.63827      .   S
    C164   O566      0.62784      .   S
    C292   O566      0.62784      .   S
    C165   O567      0.62784      .   S
    C293   O567      0.62784      .   S
    C222   O568      0.63051      .   S
    C368   O568      0.63051      .   S
    C223   O569      0.63057      .   S
    C369   O569      0.63057      .   S
    C262   O570      0.67587      .   S
    C184   O570      0.67587      .   S
    C263   O571      0.67588      .   S
    C185   O571      0.67588      .   S
    C234   O572      0.69695      .   S
    C242   O572      0.69695      .   S
    C234   O573      0.75333      .   S
    C232   O573      0.75333      .   S
    C235   O574      0.69699      .   S
    C243   O574      0.69699      .   S
    C235   O575      0.75349      .   S
    C233   O575      0.75349      .   S
    C308   O576      0.75431      .   S
    C20    O576      0.75431      .   S
    C309   O577      0.75431      .   S
    C21    O577      0.75431      .   S
    C242   O578      0.54668      .   S
    C142   O578      0.54668      .   S
    C243   O579      0.54658      .   S
    C143   O579      0.54658      .   S
    C268   O580      0.53703      .   S
    C120   O580      0.53703      .   S
    C268   O581      0.76209      .   S
    C232   O581      0.76209      .   S
    C268   O582      0.75039      .   S
    C230   O582      0.75039      .   S
    C269   O583      0.53714      .   S
    C121   O583      0.53714      .   S
    C269   O584      0.76215      .   S
    C233   O584      0.76215      .   S
    C269   O585      0.75026      .   S
    C231   O585      0.75026      .   S
    C172   O586      0.54855      .   S
    C68    O586      0.54855      .   S
    C172   O587      0.92172      .   S
    C20    O587      0.92172      .   S
    C172   O588      0.54768      .   S
    C70    O588      0.54768      .   S
    C173   O589      0.54857      .   S
    C69    O589      0.54857      .   S
    C173   O590      0.92182      .   S
    C21    O590      0.92182      .   S
    C173   O591      0.54772      .   S
    C71    O591      0.54772      .   S
    C312   O592      0.81041      .   S
    C20    O592      0.81041      .   S
    C313   O593      0.81039      .   S
    C21    O593      0.81039      .   S
    C180   O594      0.54512      .   S
    C80    O594      0.54512      .   S
    C180   O595      0.69756      .   S
    C182   O595      0.69756      .   S
    C181   O596      0.54513      .   S
    C81    O596      0.54513      .   S
    C181   O597      0.69764      .   S
    C183   O597      0.69764      .   S
    C299   O598      1.17684      .   S
    C1     O598      1.17684      .   S
    C298   O599      1.17820      .   S
    C0     O599      1.17820      .   S
    C366   O600      1.21011      .   S
    C10    O600      1.21011      .   S
    C367   O601      1.21203      .   S
    C11    O601      1.21203      .   S
    C132   O602      0.54817      .   S
    C232   O602      0.54817      .   S
    C133   O603      0.54819      .   S
    C233   O603      0.54819      .   S
    C20    O604      0.75275      .   S
    C310   O604      0.75275      .   S
    C21    O605      0.75284      .   S
    C311   O605      0.75284      .   S
    C292   O606      1.17220      .   S
    C0     O606      1.17220      .   S
    C293   O607      1.17292      .   S
    C1     O607      1.17292      .   S
    C232   O608      0.54838      .   S
    C134   O608      0.54838      .   S
    C233   O609      0.54838      .   S
    C135   O609      0.54838      .   S
    C129   O610      0.54791      .   S
    C231   O610      0.54791      .   S
    C128   O611      0.54817      .   S
    C230   O611      0.54817      .   S
    C184   O612      0.69298      .   S
    C182   O612      0.69298  1_545   S
    C184   O613      0.54394      .   S
    C84    O613      0.54394      .   S
    C185   O614      0.69299      .   S
    C183   O614      0.69299  1_545   S
    C185   O615      0.54400      .   S
    C85    O615      0.54400      .   S
    C182   O616      0.54420      .   S
    C82    O616      0.54420      .   S
    C183   O617      0.54419      .   S
    C83    O617      0.54419      .   S
    C230   O618      0.54842      .   S
    C130   O618      0.54842      .   S
    C230   O619      0.92705      .   S
    C30    O619      0.92705      .   S
    C231   O620      0.54850      .   S
    C131   O620      0.54850      .   S
    C231   O621      0.92838      .   S
    C31    O621      0.92838      .   S
    C395   O622      0.63246      .   S
    C245   O622      0.63246      .   S
    C394   O623      0.63288      .   S
    C244   O623      0.63288  1_655   S
    C290   O624      1.18551      .   S
    C0     O624      1.18551      .   S
    C290   O625      0.63244      .   S
    C162   O625      0.63244      .   S
    C291   O626      1.18643      .   S
    C1     O626      1.18643      .   S
    C291   O627      0.63238      .   S
    C163   O627      0.63238      .   S
    C310   O628      1.12721      .   S
    C6     O628      1.12721      .   S
    C311   O629      1.12747      .   S
    C7     O629      1.12747      .   S
    C0     O630      1.08317      .   S
    C280   O630      1.08317      .   S
    C0     O631      1.17072      .   S
    C396   O631      1.17072      .   S
    C0     O632      1.19892      .   S
    C284   O632      1.19892      .   S
    C1     O633      1.08362      .   S
    C281   O633      1.08362      .   S
    C1     O634      1.17345      .   S
    C397   O634      1.17345      .   S
    C1     O635      1.19790      .   S
    C285   O635      1.19790      .   S
    C376   O636      1.17717      .   S
    C10    O636      1.17717      .   S
    C376   O637      0.63687      .   S
    C226   O637      0.63687      .   S
    C377   O638      1.17714      .   S
    C11    O638      1.17714      .   S
    C377   O639      0.63699      .   S
    C227   O639      0.63699      .   S
    C10    O640      1.18453      .   S
    C386   O640      1.18453      .   S
    C10    O641      1.18104      .   S
    C342   O641      1.18104      .   S
    C10    O642      1.21572      .   S
    C374   O642      1.21572      .   S
    C10    O643      1.12708      .   S
    C346   O643      1.12708      .   S
    C11    O644      1.18529      .   S
    C387   O644      1.18529      .   S
    C11    O645      1.18337      .   S
    C343   O645      1.18337      .   S
    C11    O646      1.21327      .   S
    C375   O646      1.21327      .   S
    C11    O647      1.12740      .   S
    C347   O647      1.12740      .   S
    C392   O648      0.63520      .   S
    C245   O648      0.63520      .   S
    C392   O649      1.19757      .   S
    C12    O649      1.19757      .   S
    C393   O650      0.63485      .   S
    C244   O650      0.63485      .   S
    C393   O651      1.19952      .   S
    C13    O651      1.19952      .   S
    C337   O652      0.64126      .   S
    C196   O652      0.64126  1_455   S
    C245   O653      0.77336      .   S
    C247   O653      0.77336      .   S
    C244   O654      0.77318  1_655   S
    C246   O654      0.77318      .   S
    C336   O655      0.64164      .   S
    C197   O655      0.64164      .   S
    C30    O656      0.75183      .   S
    C386   O656      0.75183      .   S
    C30    O657      0.79420      .   S
    C390   O657      0.79420      .   S
    C30    O658      0.75865      .   S
    C388   O658      0.75865      .   S
    C31    O659      0.75196      .   S
    C387   O659      0.75196      .   S
    C31    O660      0.79402      .   S
    C391   O660      0.79402      .   S
    C31    O661      0.75841      .   S
    C389   O661      0.75841      .   S
    C289   O662      0.63466      .   S
    C163   O662      0.63466      .   S
    C289   O663      1.17178      .   S
    C13    O663      1.17178      .   S
    C288   O664      0.63471      .   S
    C162   O664      0.63471      .   S
    C288   O665      1.17380      .   S
    C12    O665      1.17380      .   S
    C163   O666      0.77296      .   S
    C161   O666      0.77296      .   S
    C162   O667      0.77334      .   S
    C160   O667      0.77334      .   S
    C119   O668      0.51048      .   S
    C391   O668      0.51048      .   S
    C118   O669      0.50996      .   S
    C390   O669      0.50996      .   S
    C226   O670      0.62882      .   S
    C378   O670      0.62882      .   S
    C226   O671      0.77165      .   S
    C224   O671      0.77165      .   S
    C280   O672      0.75843      .   S
    C18    O672      0.75843      .   S
    C196   O673      0.62687      .   S
    C338   O673      0.62687      .   S
    C196   O674      0.77160      .   S
    C199   O674      0.77160  1_655   S
    C227   O675      0.62881      .   S
    C379   O675      0.62881      .   S
    C227   O676      0.77213      .   S
    C225   O676      0.77213      .   S
    C197   O677      0.62697      .   S
    C339   O677      0.62697      .   S
    C197   O678      0.77235      .   S
    C198   O678      0.77235      .   S
    C281   O679      0.75867      .   S
    C19    O679      0.75867      .   S
    C342   O680      0.62897      .   S
    C198   O680      0.62897      .   S
    C343   O681      0.62880      .   S
    C199   O681      0.62880      .   S
    C375   O682      0.62696      .   S
    C225   O682      0.62696      .   S
    C374   O683      0.62680      .   S
    C224   O683      0.62680      .   S
    C338   O684      1.21381      .   S
    C6     O684      1.21381      .   S
    C339   O685      1.21474      .   S
    C7     O685      1.21474      .   S
    C378   O686      1.18338      .   S
    C6     O686      1.18338      .   S
    C379   O687      1.18172      .   S
    C7     O687      1.18172      .   S
    C388   O688      1.08349      .   S
    C12    O688      1.08349      .   S
    C225   O689      0.64157      .   S
    C373   O689      0.64157      .   S
    C224   O690      0.64153      .   S
    C372   O690      0.64153      .   S
    C198   O691      0.63703      .   S
    C341   O691      0.63703      .   S
    C389   O692      1.08307      .   S
    C13    O692      1.08307      .   S
    C199   O693      0.63672  1_655   S
    C340   O693      0.63672      .   S
    C283   O694      0.51027  1_565   S
    C35    O694      0.51027      .   S
    C283   O695      0.79405      .   S
    C19    O695      0.79405      .   S
    C282   O696      0.51081  1_565   S
    C34    O696      0.51081      .   S
    C282   O697      0.79411      .   S
    C18    O697      0.79411      .   S
    C247   O698      0.63467      .   S
    C397   O698      0.63467      .   S
    C247   O699      0.63131      .   S
    C398   O699      0.63131      .   S
    C246   O700      0.63452      .   S
    C396   O700      0.63452      .   S
    C246   O701      0.63230      .   S
    C399   O701      0.63230  1_655   S
    C279   O702      0.75194      .   S
    C19    O702      0.75194  1_565   S
    C279   O703      1.18570      .   S
    C7     O703      1.18570      .   S
    C278   O704      0.75211      .   S
    C18    O704      0.75211  1_565   S
    C278   O705      1.18495      .   S
    C6     O705      1.18495      .   S
    C18    O706      0.92778      .   S
    C146   O706      0.92778      .   S
    C19    O707      0.92711      .   S
    C147   O707      0.92711      .   S
    C160   O708      0.63515      .   S
    C284   O708      0.63515      .   S
    C160   O709      0.63246      .   S
    C286   O709      0.63246      .   S
    C161   O710      0.63517      .   S
    C285   O710      0.63517      .   S
    C161   O711      0.63245      .   S
    C287   O711      0.63245      .   S
    C6     O712      1.17780      .   S
    C340   O712      1.17780      .   S
    C6     O713      1.21258      .   S
    C330   O713      1.21258      .   S
    C7     O714      1.17689      .   S
    C341   O714      1.17689      .   S
    C7     O715      1.21158      .   S
    C331   O715      1.21158      .   S
    C12    O716      1.18603      .   S
    C398   O716      1.18603      .   S
    C12    O717      1.17265      .   S
    C400   O717      1.17265      .   S
    C12    O718      1.17682      .   S
    C406   O718      1.17682      .   S
    C13    O719      1.18614      .   S
    C399   O719      1.18614      .   S
    C13    O720      1.17123      .   S
    C401   O720      1.17123      .   S
    C13    O721      1.17806      .   S
    C407   O721      1.17806      .   S
    C346   O722      0.75356      .   S
    C24    O722      0.75356      .   S
    C347   O723      0.75281      .   S
    C25    O723      0.75281      .   S
    C110   O724      0.54420      .   S
    C210   O724      0.54420      .   S
    C111   O725      0.54416      .   S
    C211   O725      0.54416      .   S
    C50    O726      0.54835      .   S
    C148   O726      0.54835      .   S
    C51    O727      0.54836      .   S
    C149   O727      0.54836      .   S
    C112   O728      0.54403      .   S
    C212   O728      0.54403      .   S
    C113   O729      0.54397      .   S
    C213   O729      0.54397      .   S
    C46    O730      0.54846      .   S
    C146   O730      0.54846      .   S
    C47    O731      0.54843      .   S
    C147   O731      0.54843      .   S
    C146   O732      0.54816      .   S
    C44    O732      0.54816      .   S
    C146   O733      0.75057      .   S
    C256   O733      0.75057      .   S
    C147   O734      0.54814      .   S
    C45    O734      0.54814      .   S
    C147   O735      0.74985      .   S
    C257   O735      0.74985      .   S
    C210   O736      0.69290      .   S
    C212   O736      0.69290      .   S
    C210   O737      0.69744      .   S
    C208   O737      0.69744      .   S
    C211   O738      0.69292      .   S
    C213   O738      0.69292      .   S
    C211   O739      0.69759      .   S
    C209   O739      0.69759      .   S
    C59    O740      0.54666      .   S
    C158   O740      0.54666      .   S
    C58    O741      0.54661  1_455   S
    C159   O741      0.54661      .   S
    C99    O742      0.54756      .   S
    C201   O742      0.54756      .   S
    C98    O743      0.54771      .   S
    C200   O743      0.54771      .   S
    C332   O744      0.63061      .   S
    C194   O744      0.63061      .   S
    C333   O745      0.63045      .   S
    C195   O745      0.63045      .   S
    C212   O746      0.67587      .   S
    C266   O746      0.67587      .   S
    C213   O747      0.67581      .   S
    C267   O747      0.67581      .   S
    C148   O748      0.54818      .   S
    C48    O748      0.54818      .   S
    C148   O749      0.76221      .   S
    C256   O749      0.76221      .   S
    C148   O750      0.75348      .   S
    C150   O750      0.75348      .   S
    C400   O751      0.62784      .   S
    C248   O751      0.62784      .   S
    C149   O752      0.54819      .   S
    C49    O752      0.54819      .   S
    C149   O753      0.76188      .   S
    C257   O753      0.76188      .   S
    C149   O754      0.75328      .   S
    C151   O754      0.75328      .   S
    C401   O755      0.62789      .   S
    C249   O755      0.62789      .   S
    C24    O756      0.81036      .   S
    C348   O756      0.81036      .   S
    C24    O757      0.92182      .   S
    C200   O757      0.92182      .   S
    C24    O758      0.75435      .   S
    C344   O758      0.75435      .   S
    C25    O759      0.81028      .   S
    C349   O759      0.81028      .   S
    C25    O760      0.92167      .   S
    C201   O760      0.92167      .   S
    C25    O761      0.75425      .   S
    C345   O761      0.75425      .   S
    C330   O762      0.63838      .   S
    C192   O762      0.63838      .   S
    C331   O763      0.63847      .   S
    C193   O763      0.63847      .   S
    C108   O764      0.54509      .   S
    C208   O764      0.54509      .   S
    C109   O765      0.54514      .   S
    C209   O765      0.54514      .   S
    C96    O766      0.54856      .   S
    C200   O766      0.54856      .   S
    C97    O767      0.54839      .   S
    C201   O767      0.54839      .   S
    C407   O768      0.63723      .   S
    C251   O768      0.63723      .   S
    C406   O769      0.63716      .   S
    C250   O769      0.63716      .   S
    C208   O770      0.70111      .   S
    C207   O770      0.70111  1_655   S
    C209   O771      0.70103      .   S
    C206   O771      0.70103      .   S
    C36    O772      0.53734  1_545   S
    C256   O772      0.53734      .   S
    C37    O773      0.53726  1_545   S
    C257   O773      0.53726      .   S
    C348   O774      0.48867      .   S
    C88    O774      0.48867      .   S
    C349   O775      0.48849      .   S
    C89    O775      0.48849      .   S
    C200   O776      0.75447      .   S
    C264   O776      0.75447      .   S
    C201   O777      0.75495      .   S
    C265   O777      0.75495      .   S
    C256   O778      0.75439      .   S
    C144   O778      0.75439      .   S
    C257   O779      0.75500      .   S
    C145   O779      0.75500      .   S
    C159   O780      0.69704      .   S
    C150   O780      0.69704  1_465   S
    C159   O781      0.67392      .   S
    C259   O781      0.67392      .   S
    C158   O782      0.69711      .   S
    C151   O782      0.69711  1_565   S
    C158   O783      0.67394      .   S
    C258   O783      0.67394      .   S
    C150   O784      0.70076  1_455   S
    C153   O784      0.70076      .   S
    C151   O785      0.70098      .   S
    C152   O785      0.70098      .   S
    C266   O786      0.53596      .   S
    C94    O786      0.53596      .   S
    C266   O787      0.67399      .   S
    C214   O787      0.67399      .   S
    C267   O788      0.53585      .   S
    C95    O788      0.53585      .   S
    C267   O789      0.67398      .   S
    C215   O789      0.67398      .   S
    C194   O790      0.77016      .   S
    C192   O790      0.77016      .   S
    C194   O791      0.63714      .   S
    C334   O791      0.63714      .   S
    C195   O792      0.77019      .   S
    C193   O792      0.77019      .   S
    C195   O793      0.63719      .   S
    C335   O793      0.63719      .   S
    C32    O794      0.48870      .   S
    C276   O794      0.48870      .   S
    C33    O795      0.48872      .   S
    C277   O795      0.48872      .   S
    C38    O796      0.53596      .   S
    C258   O796      0.53596      .   S
    C39    O797      0.53581      .   S
    C259   O797      0.53581      .   S
    C248   O798      0.77019      .   S
    C250   O798      0.77019      .   S
    C248   O799      0.63838      .   S
    C402   O799      0.63838      .   S
    C249   O800      0.77024      .   S
    C251   O800      0.77024      .   S
    C249   O801      0.63824      .   S
    C403   O801      0.63824      .   S
    C192   O802      0.62787      .   S
    C328   O802      0.62787      .   S
    C193   O803      0.62788      .   S
    C329   O803      0.62788      .   S
    C251   O804      0.63056      .   S
    C405   O804      0.63056      .   S
    C250   O805      0.63018      .   S
    C404   O805      0.63018      .   S
    C258   O806      0.67585      .   S
    C156   O806      0.67585      .   S
    C259   O807      0.67588      .   S
    C157   O807      0.67588      .   S
    C207   O808      0.69696  1_655   S
    C214   O808      0.69696      .   S
    C207   O809      0.75348      .   S
    C205   O809      0.75348      .   S
    C206   O810      0.69696      .   S
    C215   O810      0.69696      .   S
    C206   O811      0.75341      .   S
    C204   O811      0.75341      .   S
    C272   O812      0.75429      .   S
    C16    O812      0.75429      .   S
    C273   O813      0.75432      .   S
    C17    O813      0.75432      .   S
    C214   O814      0.54652      .   S
    C115   O814      0.54652  1_655   S
    C215   O815      0.54661      .   S
    C114   O815      0.54661      .   S
    C264   O816      0.53721      .   S
    C92    O816      0.53721      .   S
    C264   O817      0.76217      .   S
    C204   O817      0.76217      .   S
    C264   O818      0.75058      .   S
    C202   O818      0.75058      .   S
    C265   O819      0.53706      .   S
    C93    O819      0.53706      .   S
    C265   O820      0.76217      .   S
    C205   O820      0.76217      .   S
    C265   O821      0.75064      .   S
    C203   O821      0.75064      .   S
    C144   O822      0.54858      .   S
    C40    O822      0.54858      .   S
    C144   O823      0.92184      .   S
    C16    O823      0.92184      .   S
    C144   O824      0.54774      .   S
    C42    O824      0.54774      .   S
    C145   O825      0.54855      .   S
    C41    O825      0.54855      .   S
    C145   O826      0.92176      .   S
    C17    O826      0.92176      .   S
    C145   O827      0.54770      .   S
    C43    O827      0.54770      .   S
    C276   O828      0.81034      .   S
    C16    O828      0.81034      .   S
    C277   O829      0.81040      .   S
    C17    O829      0.81040      .   S
    C153   O830      0.54517      .   S
    C53    O830      0.54517      .   S
    C153   O831      0.69770      .   S
    C155   O831      0.69770      .   S
    C152   O832      0.54511      .   S
    C52    O832      0.54511      .   S
    C152   O833      0.69757      .   S
    C154   O833      0.69757      .   S
    C334   O834      1.17734      .   S
    C4     O834      1.17734      .   S
    C335   O835      1.17703      .   S
    C5     O835      1.17703      .   S
    C402   O836      1.21201      .   S
    C14    O836      1.21201      .   S
    C403   O837      1.21106      .   S
    C15    O837      1.21106      .   S
    C105   O838      0.54818      .   S
    C205   O838      0.54818      .   S
    C104   O839      0.54816      .   S
    C204   O839      0.54816      .   S
    C16    O840      0.75226      .   S
    C274   O840      0.75226      .   S
    C17    O841      0.75281      .   S
    C275   O841      0.75281      .   S
    C328   O842      1.17276      .   S
    C4     O842      1.17276      .   S
    C329   O843      1.17330      .   S
    C5     O843      1.17330      .   S
    C205   O844      0.54798      .   S
    C107   O844      0.54798      .   S
    C204   O845      0.54836      .   S
    C106   O845      0.54836      .   S
    C100   O846      0.54818      .   S
    C202   O846      0.54818      .   S
    C101   O847      0.54819      .   S
    C203   O847      0.54819      .   S
    C157   O848      0.69301      .   S
    C155   O848      0.69301  1_565   S
    C157   O849      0.54401      .   S
    C57    O849      0.54401      .   S
    C156   O850      0.69301      .   S
    C154   O850      0.69301  1_565   S
    C156   O851      0.54401      .   S
    C56    O851      0.54401      .   S
    C155   O852      0.54416      .   S
    C55    O852      0.54416      .   S
    C154   O853      0.54416      .   S
    C54    O853      0.54416      .   S
    C202   O854      0.54844      .   S
    C102   O854      0.54844      .   S
    C202   O855      0.92775      .   S
    C26    O855      0.92775      .   S
    C203   O856      0.54844      .   S
    C103   O856      0.54844      .   S
    C203   O857      0.92779      .   S
    C27    O857      0.92779      .   S
    C358   O858      0.63253      .   S
    C216   O858      0.63253      .   S
    C359   O859      0.63253      .   S
    C217   O859      0.63253      .   S
    C326   O860      1.18652      .   S
    C4     O860      1.18652      .   S
    C326   O861      0.63223  1_455   S
    C191   O861      0.63223      .   S
    C327   O862      1.18668      .   S
    C5     O862      1.18668      .   S
    C327   O863      0.63245      .   S
    C190   O863      0.63245      .   S
    C4     O864      1.08334      .   S
    C316   O864      1.08334      .   S
    C5     O865      1.08343      .   S
    C317   O865      1.08343      .   S
    C412   O866      1.17792      .   S
    C14    O866      1.17792      .   S
    C412   O867      0.63700      .   S
    C255   O867      0.63700      .   S
    C413   O868      1.17784      .   S
    C15    O868      1.17784      .   S
    C413   O869      0.63684      .   S
    C254   O869      0.63684  1_455   S
    C14    O870      1.18475      .   S
    C350   O870      1.18475      .   S
    C14    O871      1.18270      .   S
    C306   O871      1.18270      .   S
    C14    O872      1.21396      .   S
    C410   O872      1.21396      .   S
    C15    O873      1.18513      .   S
    C351   O873      1.18513      .   S
    C15    O874      1.18247      .   S
    C307   O874      1.18247      .   S
    C15    O875      1.21362      .   S
    C411   O875      1.21362      .   S
    C356   O876      0.63513      .   S
    C216   O876      0.63513      .   S
    C357   O877      0.63510      .   S
    C217   O877      0.63510      .   S
    C300   O878      0.64143      .   S
    C168   O878      0.64143      .   S
    C301   O879      0.64143      .   S
    C169   O879      0.64143      .   S
    C26    O880      0.75203      .   S
    C350   O880      0.75203      .   S
    C26    O881      0.79390      .   S
    C354   O881      0.79390      .   S
    C27    O882      0.75201      .   S
    C351   O882      0.75201      .   S
    C27    O883      0.79391      .   S
    C355   O883      0.79391      .   S
    C325   O884      0.63462      .   S
    C191   O884      0.63462      .   S
    C324   O885      0.63463      .   S
    C190   O885      0.63463      .   S
    C90    O886      0.51060      .   S
    C354   O886      0.51060      .   S
    C91    O887      0.51059      .   S
    C355   O887      0.51059      .   S
    C286   O888      1.20457      .   S
    C12    O888      1.20457      .   S
    C287   O889      1.20611      .   S
    C13    O889      1.20611      .   S
    C296   O890      1.23590      .   S
    C2     O890      1.23590      .   S
    C297   O891      1.23466      .   S
    C3     O891      1.23466      .   S
    C300   O892      1.21478      .   S
    C14    O892      1.21478      .   S
    C301   O893      1.21475      .   S
    C15    O893      1.21475      .   S
    C322   O894      1.20680      .   S
    C8     O894      1.20680      .   S
    C323   O895      1.20749      .   S
    C9     O895      1.20749      .   S
    C332   O896      1.23433      .   S
    C6     O896      1.23433      .   S
    C333   O897      1.23485      .   S
    C7     O897      1.23485      .   S
    C336   O898      1.21726      .   S
    C10    O898      1.21726      .   S
    C337   O899      1.21382      .   S
    C11    O899      1.21382      .   S
    C358   O900      1.20434      .   S
    C4     O900      1.20434      .   S
    C359   O901      1.20412      .   S
    C5     O901      1.20412      .   S
    C368   O902      1.23566      .   S
    C10    O902      1.23566      .   S
    C369   O903      1.23517      .   S
    C11    O903      1.23517      .   S
    C372   O904      1.21382      .   S
    C6     O904      1.21382      .   S
    C373   O905      1.21637      .   S
    C7     O905      1.21637      .   S
    C394   O906      1.20600      .   S
    C0     O906      1.20600      .   S
    C395   O907      1.20414      .   S
    C1     O907      1.20414      .   S
    C404   O908      1.23462      .   S
    C14    O908      1.23462      .   S
    C405   O909      1.23535      .   S
    C15    O909      1.23535      .   S
    C408   O910      1.21567      .   S
    C2     O910      1.21567      .   S
    C409   O911      1.21540      .   S
    C3     O911      1.21540      .   S
