# CIF file generated by openbabel 2.4.90, see http://openbabel.sf.net
data_I
_chemical_name_common ''
_cell_length_a 21.644
_cell_length_b 13.83
_cell_length_c 13.69
_cell_angle_alpha 90.487
_cell_angle_beta 89.967
_cell_angle_gamma 90.27
_space_group_name_H-M_alt 'P 1'
_space_group_name_Hall 'P 1'
loop_
    _symmetry_equiv_pos_as_xyz
    x,y,z
loop_
    _atom_site_label
    _atom_site_type_symbol
    _atom_site_fract_x
    _atom_site_fract_y
    _atom_site_fract_z
    _atom_site_occupancy
    Cu0     Cu   0.87136   0.34164   0.72027   1.000
    Cu1     Cu   0.37062   0.15803   0.77953   1.000
    Cu2     Cu   0.86986   0.15796   0.77962   1.000
    Cu3     Cu   0.12022   0.27917   0.84213   1.000
    Cu4     Cu   0.62100   0.27923   0.84203   1.000
    Cu5     Cu   0.12027   0.22066   0.65449   1.000
    Cu6     Cu   0.62111   0.22078   0.65446   1.000
    Cu7     Cu   0.12871   0.65838   0.27960   1.000
    Cu8     Cu   0.62922   0.65861   0.27953   1.000
    Cu9     Cu   0.13017   0.84206   0.22033   1.000
    Cu10    Cu   0.62941   0.84199   0.22043   1.000
    Cu11    Cu   0.37903   0.72079   0.15792   1.000
    Cu12    Cu   0.87981   0.72085   0.15784   1.000
    Cu13    Cu   0.37893   0.77924   0.34550   1.000
    Cu14    Cu   0.87976   0.77936   0.34547   1.000
    Cu15    Cu   0.37081   0.34141   0.72042   1.000
loop_
    _geom_bond_atom_site_label_1
    _geom_bond_atom_site_label_2
    _geom_bond_distance
    _geom_bond_site_symmetry_2
    _ccdc_geom_bond_type
    Cu12   Cu14      2.68651      .   S
    Cu11   Cu13      2.68563      .   S
    Cu9    Cu7       2.67328      .   S
    Cu10   Cu8       2.66858      .   S
    Cu6    Cu4       2.68549      .   S
    Cu5    Cu3       2.68664      .   S
    Cu0    Cu2       2.67363      .   S
    Cu15   Cu1       2.66862      .   S
