# CIF file generated by openbabel 2.4.90, see http://openbabel.sf.net
data_I
_chemical_name_common ''
_cell_length_a 21.644
_cell_length_b 13.83
_cell_length_c 13.69
_cell_angle_alpha 90.487
_cell_angle_beta 89.967
_cell_angle_gamma 90.27
_space_group_name_H-M_alt 'P 1'
_space_group_name_Hall 'P 1'
loop_
    _symmetry_equiv_pos_as_xyz
    x,y,z
loop_
    _atom_site_label
    _atom_site_type_symbol
    _atom_site_fract_x
    _atom_site_fract_y
    _atom_site_fract_z
    _atom_site_occupancy
    N0      N    0.62652   0.74857   0.75074   1.000
    N1      N    0.12673   0.74871   0.75085   1.000
    N2      N    0.26983   0.20567   0.62797   1.000
    N3      N    0.73020   0.79433   0.37198   1.000
    N4      N    0.37352   0.25144   0.24921   1.000
    N5      N    0.87296   0.25131   0.24910   1.000
    N6      N    0.98060   0.87008   0.20824   1.000
    N7      N    0.47990   0.86980   0.20855   1.000
    N8      N    0.97934   0.63000   0.29316   1.000
    N9      N    0.22956   0.79386   0.37244   1.000
    N10     N    0.52041   0.36957   0.70683   1.000
    N11     N    0.02073   0.37004   0.70677   1.000
    N12     N    0.73028   0.70695   0.12898   1.000
    N13     N    0.47961   0.63045   0.29311   1.000
    N14     N    0.26975   0.29306   0.87099   1.000
    N15     N    0.77033   0.29357   0.87096   1.000
    N16     N    0.77047   0.20619   0.62751   1.000
    N17     N    0.01943   0.12994   0.79166   1.000
    N18     N    0.52013   0.13022   0.79140   1.000
    N19     N    0.22970   0.70646   0.12898   1.000
    Zr20    Zr   0.37898   0.75002   0.25171   1.000
    O21     O    0.33074   0.73038   0.19464   1.000
    O22     O    0.44679   0.73507   0.08842   1.000
    O23     O    0.33067   0.76968   0.30815   1.000
    O24     O    0.44683   0.76416   0.41446   1.000
    Zr25    Zr   0.12944   0.75022   0.24997   1.000
    O26     O    0.08079   0.69432   0.26956   1.000
    O27     O    0.19610   0.58824   0.26459   1.000
    O28     O    0.08144   0.80599   0.23080   1.000
    O29     O    0.19640   0.91294   0.23490   1.000
    Zr30    Zr   0.87978   0.75011   0.25166   1.000
    O31     O    0.83142   0.76995   0.30793   1.000
    O32     O    0.94747   0.76424   0.41446   1.000
    O33     O    0.83145   0.73063   0.19460   1.000
    O34     O    0.94742   0.73518   0.08841   1.000
    Zr35    Zr   0.62105   0.25001   0.74825   1.000
    O36     O    0.66936   0.23036   0.69181   1.000
    O37     O    0.55321   0.23586   0.58550   1.000
    O38     O    0.66930   0.26964   0.80531   1.000
    O39     O    0.55325   0.26495   0.91153   1.000
    Zr40    Zr   0.62931   0.75030   0.24998   1.000
    O41     O    0.69595   0.58827   0.26453   1.000
    O42     O    0.58089   0.69457   0.26952   1.000
    O43     O    0.58102   0.80589   0.23095   1.000
    O44     O    0.69599   0.91295   0.23490   1.000
    Zr45    Zr   0.37071   0.24972   0.74997   1.000
    O46     O    0.41913   0.30545   0.73042   1.000
    O47     O    0.30400   0.41175   0.73542   1.000
    O48     O    0.41900   0.19413   0.76901   1.000
    O49     O    0.30395   0.08707   0.76505   1.000
    Zr50    Zr   0.87061   0.24980   0.74994   1.000
    O51     O    0.91927   0.30571   0.73036   1.000
    O52     O    0.80396   0.41178   0.73533   1.000
    O53     O    0.91860   0.19404   0.76911   1.000
    O54     O    0.80364   0.08709   0.76502   1.000
    Zr55    Zr   0.12025   0.24991   0.74831   1.000
    O56     O    0.16858   0.26938   0.80537   1.000
    O57     O    0.05253   0.26485   0.91156   1.000
    O58     O    0.16861   0.23007   0.69203   1.000
    O59     O    0.05248   0.23578   0.58550   1.000
    O60     O    0.34152   0.23279   0.70348   1.000
    O61     O    0.34149   0.26635   0.79621   1.000
    O62     O    0.09107   0.20410   0.76475   1.000
    O63     O    0.09156   0.29578   0.73241   1.000
    O64     O    0.84164   0.26658   0.79617   1.000
    O65     O    0.84169   0.23300   0.70331   1.000
    O66     O    0.65851   0.76723   0.29647   1.000
    O67     O    0.59184   0.20423   0.76462   1.000
    O68     O    0.15840   0.73345   0.20375   1.000
    O69     O    0.65854   0.73366   0.20375   1.000
    O70     O    0.40808   0.70433   0.26757   1.000
    O71     O    0.90895   0.79592   0.23520   1.000
    O72     O    0.40819   0.79579   0.23533   1.000
    O73     O    0.90848   0.70424   0.26754   1.000
    O74     O    0.15835   0.76704   0.29662   1.000
    O75     O    0.59195   0.29569   0.73238   1.000
loop_
    _geom_bond_atom_site_label_1
    _geom_bond_atom_site_label_2
    _geom_bond_distance
    _geom_bond_site_symmetry_2
    _ccdc_geom_bond_type
    Zr20   O21       1.33004      .   S
    N19    O21       2.38531      .   S
    Zr20   O22       2.68055      .   S
    N0     O22       6.04361  1_556   S
    Zr20   O23       1.32748      .   S
    N9     O23       2.38232      .   S
    Zr20   O24       2.67439      .   S
    N0     O24       6.03436      .   S
    Zr25   O26       1.33182      .   S
    N8     O26       2.38809  1_655   S
    Zr25   O27       2.67929      .   S
    N4     O27       6.05297      .   S
    Zr25   O28       1.32443      .   S
    N6     O28       2.38099  1_655   S
    Zr25   O29       2.68030      .   S
    N4     O29       6.03888  1_545   S
    Zr30   O31       1.32771      .   S
    N3     O31       2.38370      .   S
    Zr30   O32       2.67315      .   S
    N1     O32       6.02942  1_455   S
    Zr30   O33       1.33097      .   S
    N12    O33       2.38745      .   S
    Zr30   O34       2.67797      .   S
    N1     O34       6.03655  1_456   S
    Zr35   O36       1.32749      .   S
    N16    O36       2.38234      .   S
    Zr35   O37       2.67433      .   S
    N4     O37       6.03425      .   S
    Zr35   O38       1.33004      .   S
    N15    O38       2.38535      .   S
    Zr35   O39       2.68048      .   S
    N4     O39       6.04346  1_554   S
    Zr40   O41       2.67948      .   S
    N5     O41       6.04907      .   S
    Zr40   O42       1.32641      .   S
    N13    O42       2.38374      .   S
    Zr40   O43       1.32757      .   S
    N7     O43       2.38526      .   S
    Zr40   O44       2.67625      .   S
    N5     O44       6.03523  1_545   S
    Zr45   O46       1.32643      .   S
    N10    O46       2.38375      .   S
    Zr45   O47       2.68049      .   S
    N1     O47       6.05253      .   S
    Zr45   O48       1.32760      .   S
    N18    O48       2.38530      .   S
    Zr45   O49       2.67718      .   S
    N1     O49       6.03857  1_565   S
    Zr50   O51       1.33201      .   S
    N11    O51       2.38829  1_455   S
    Zr50   O52       2.67922      .   S
    N0     O52       6.05304      .   S
    Zr50   O53       1.32425      .   S
    N17    O53       2.38075  1_455   S
    Zr50   O54       2.68042      .   S
    N0     O54       6.03892  1_565   S
    Zr55   O56       1.33098      .   S
    N14    O56       2.38746      .   S
    Zr55   O57       2.67893      .   S
    N5     O57       6.03993  1_654   S
    Zr55   O58       1.32779      .   S
    N2     O58       2.38379      .   S
    Zr55   O59       2.67419      .   S
    N5     O59       6.03300  1_655   S
    Zr45   O60       0.92508      .   S
    N2     O60       1.89905      .   S
    Zr45   O61       0.92310      .   S
    N14    O61       1.89541      .   S
    Zr55   O62       0.92158      .   S
    N17    O62       1.89285      .   S
    Zr55   O63       0.91735      .   S
    N11    O63       1.88413      .   S
    N15    O64       1.88858      .   S
    Zr50   O64       0.91971      .   S
    N16    O65       1.89221      .   S
    Zr50   O65       0.92189      .   S
    N3     O66       1.89906      .   S
    Zr40   O66       0.92502      .   S
    N18    O67       1.89259      .   S
    Zr35   O67       0.92161      .   S
    N19    O68       1.88826      .   S
    Zr25   O68       0.91951      .   S
    Zr40   O69       0.92311      .   S
    N12    O69       1.89544      .   S
    N13    O70       1.89339      .   S
    Zr20   O70       0.92160      .   S
    N6     O71       1.89296      .   S
    Zr30   O71       0.92166      .   S
    N7     O72       1.89258      .   S
    Zr20   O72       0.92160      .   S
    N8     O73       1.88445      .   S
    Zr30   O73       0.91745      .   S
    N9     O74       1.89228      .   S
    Zr25   O74       0.92199      .   S
    N10    O75       1.89348      .   S
    Zr35   O75       0.92164      .   S
