# CIF file generated by openbabel 2.4.90, see http://openbabel.sf.net
data_I
_chemical_name_common ''
_cell_length_a 21.644
_cell_length_b 13.83
_cell_length_c 13.69
_cell_angle_alpha 90.487
_cell_angle_beta 89.967
_cell_angle_gamma 90.27
_space_group_name_H-M_alt 'P 1'
_space_group_name_Hall 'P 1'
loop_
    _symmetry_equiv_pos_as_xyz
    x,y,z
loop_
    _atom_site_label
    _atom_site_type_symbol
    _atom_site_fract_x
    _atom_site_fract_y
    _atom_site_fract_z
    _atom_site_occupancy
    N0      N    0.62652   0.74857   0.75074   1.000
    N1      N    0.12673   0.74871   0.75085   1.000
    N2      N    0.26983   0.20567   0.62797   1.000
    N3      N    0.73020   0.79433   0.37198   1.000
    N4      N    0.37352   0.25144   0.24921   1.000
    N5      N    0.87296   0.25131   0.24910   1.000
    N6      N    0.98060   0.87008   0.20824   1.000
    N7      N    0.47990   0.86980   0.20855   1.000
    N8      N    0.97934   0.63000   0.29316   1.000
    N9      N    0.22956   0.79386   0.37244   1.000
    N10     N    0.52041   0.36957   0.70683   1.000
    N11     N    0.02073   0.37004   0.70677   1.000
    N12     N    0.73028   0.70695   0.12898   1.000
    N13     N    0.47961   0.63045   0.29311   1.000
    N14     N    0.26975   0.29306   0.87099   1.000
    N15     N    0.77033   0.29357   0.87096   1.000
    N16     N    0.77047   0.20619   0.62751   1.000
    N17     N    0.01943   0.12994   0.79166   1.000
    N18     N    0.52013   0.13022   0.79140   1.000
    N19     N    0.22970   0.70646   0.12898   1.000
    Zr20    Zr   0.37898   0.75002   0.25171   1.000
    O21     O    0.40808   0.70067   0.25584   1.000
    O22     O    0.40820   0.79214   0.22361   1.000
    O23     O    0.33074   0.73038   0.19464   1.000
    O24     O    0.44679   0.73507   0.08842   1.000
    O25     O    0.33067   0.76968   0.30815   1.000
    O26     O    0.40807   0.70798   0.27929   1.000
    O27     O    0.40818   0.79944   0.24705   1.000
    O28     O    0.44683   0.76416   0.41446   1.000
    Zr29    Zr   0.12944   0.75022   0.24997   1.000
    O30     O    0.08079   0.69432   0.26956   1.000
    O31     O    0.15826   0.75556   0.30032   1.000
    O32     O    0.15831   0.72197   0.20746   1.000
    O33     O    0.19610   0.58824   0.26459   1.000
    O34     O    0.08144   0.80599   0.23080   1.000
    O35     O    0.15844   0.77852   0.29291   1.000
    O36     O    0.15850   0.74493   0.20005   1.000
    O37     O    0.19640   0.91294   0.23490   1.000
    Zr38    Zr   0.87978   0.75011   0.25166   1.000
    O39     O    0.83142   0.76995   0.30793   1.000
    O40     O    0.90848   0.70790   0.27926   1.000
    O41     O    0.90895   0.79958   0.24693   1.000
    O42     O    0.94747   0.76424   0.41446   1.000
    O43     O    0.83145   0.73063   0.19460   1.000
    O44     O    0.90896   0.79227   0.22347   1.000
    O45     O    0.90849   0.70058   0.25581   1.000
    O46     O    0.94742   0.73518   0.08841   1.000
    Zr47    Zr   0.62105   0.25001   0.74825   1.000
    O48     O    0.59196   0.29204   0.72066   1.000
    O49     O    0.66936   0.23036   0.69181   1.000
    O50     O    0.59185   0.20058   0.75290   1.000
    O51     O    0.55321   0.23586   0.58550   1.000
    O52     O    0.59195   0.29935   0.74411   1.000
    O53     O    0.66930   0.26964   0.80531   1.000
    O54     O    0.59183   0.20788   0.77635   1.000
    O55     O    0.55325   0.26495   0.91153   1.000
    Zr56    Zr   0.62931   0.75030   0.24998   1.000
    O57     O    0.69595   0.58827   0.26453   1.000
    O58     O    0.65849   0.75577   0.30016   1.000
    O59     O    0.58089   0.69457   0.26952   1.000
    O60     O    0.65853   0.72220   0.20745   1.000
    O61     O    0.65852   0.77869   0.29278   1.000
    O62     O    0.58102   0.80589   0.23095   1.000
    O63     O    0.65855   0.74513   0.20006   1.000
    O64     O    0.69599   0.91295   0.23490   1.000
    Zr65    Zr   0.37071   0.24972   0.74997   1.000
    O66     O    0.34153   0.24425   0.69978   1.000
    O67     O    0.41913   0.30545   0.73042   1.000
    O68     O    0.34150   0.27782   0.79251   1.000
    O69     O    0.30400   0.41175   0.73542   1.000
    O70     O    0.34148   0.25489   0.79990   1.000
    O71     O    0.34151   0.22133   0.70717   1.000
    O72     O    0.41900   0.19413   0.76901   1.000
    O73     O    0.30395   0.08707   0.76505   1.000
    Zr74    Zr   0.87061   0.24980   0.74994   1.000
    O75     O    0.91927   0.30571   0.73036   1.000
    O76     O    0.84179   0.24448   0.69960   1.000
    O77     O    0.84174   0.27806   0.79246   1.000
    O78     O    0.80396   0.41178   0.73533   1.000
    O79     O    0.91860   0.19404   0.76911   1.000
    O80     O    0.84155   0.25510   0.79988   1.000
    O81     O    0.84160   0.22152   0.70702   1.000
    O82     O    0.80364   0.08709   0.76502   1.000
    Zr83    Zr   0.12025   0.24991   0.74831   1.000
    O84     O    0.16858   0.26938   0.80537   1.000
    O85     O    0.09107   0.20775   0.77647   1.000
    O86     O    0.09156   0.29944   0.74414   1.000
    O87     O    0.05253   0.26485   0.91156   1.000
    O88     O    0.16861   0.23007   0.69203   1.000
    O89     O    0.09108   0.20044   0.75302   1.000
    O90     O    0.09157   0.29213   0.72068   1.000
    O91     O    0.05248   0.23578   0.58550   1.000
loop_
    _geom_bond_atom_site_label_1
    _geom_bond_atom_site_label_2
    _geom_bond_distance
    _geom_bond_site_symmetry_2
    _ccdc_geom_bond_type
    Zr20   O21       0.93300      .   S
    N13    O21       1.90360      .   S
    Zr20   O22       0.94204      .   S
    N7     O22       1.89537      .   S
    Zr20   O23       1.33004      .   S
    N19    O23       2.38531      .   S
    Zr20   O24       2.68055      .   S
    N0     O24       6.04361  1_556   S
    Zr20   O25       1.32748      .   S
    N9     O25       2.38232      .   S
    Zr20   O26       0.94050      .   S
    N13    O26       1.89802      .   S
    Zr20   O27       0.93146      .   S
    N7     O27       1.90464      .   S
    Zr20   O28       2.67439      .   S
    N0     O28       6.03436      .   S
    Zr29   O30       1.33182      .   S
    N8     O30       2.38809  1_655   S
    Zr29   O31       0.93217      .   S
    N9     O31       1.90325      .   S
    Zr29   O32       0.93802      .   S
    N19    O32       1.89338      .   S
    Zr29   O33       2.67929      .   S
    N4     O33       6.05297      .   S
    Zr29   O34       1.32443      .   S
    N6     O34       2.38099  1_655   S
    Zr29   O35       0.94181      .   S
    N9     O35       1.89604      .   S
    Zr29   O36       0.93109      .   S
    N19    O36       1.89790      .   S
    Zr29   O37       2.68030      .   S
    N4     O37       6.03888  1_545   S
    Zr38   O39       1.32771      .   S
    N3     O39       2.38370      .   S
    Zr38   O40       0.93640      .   S
    N8     O40       1.88910      .   S
    Zr38   O41       0.93145      .   S
    N6     O41       1.90509      .   S
    Zr38   O42       2.67315      .   S
    N1     O42       6.02942  1_455   S
    Zr38   O43       1.33097      .   S
    N12    O43       2.38745      .   S
    Zr38   O44       0.94218      .   S
    N6     O44       1.89568      .   S
    Zr38   O45       0.92897      .   S
    N8     O45       1.89472      .   S
    Zr38   O46       2.67797      .   S
    N1     O46       6.03655  1_456   S
    Zr47   O48       0.94055      .   S
    N10    O48       1.89810      .   S
    Zr47   O49       1.32749      .   S
    N16    O49       2.38234      .   S
    Zr47   O50       0.93147      .   S
    N18    O50       1.90464      .   S
    Zr47   O51       2.67433      .   S
    N4     O51       6.03425      .   S
    Zr47   O52       0.93304      .   S
    N10    O52       1.90371      .   S
    Zr47   O53       1.33004      .   S
    N15    O53       2.38535      .   S
    Zr47   O54       0.94204      .   S
    N18    O54       1.89539      .   S
    Zr47   O55       2.68048      .   S
    N4     O55       6.04346  1_554   S
    Zr56   O57       2.67948      .   S
    N5     O57       6.04907      .   S
    Zr56   O58       0.93585      .   S
    N3     O58       1.90905      .   S
    Zr56   O59       1.32641      .   S
    N13    O59       2.38374      .   S
    Zr56   O60       0.94235      .   S
    N12    O60       1.89941      .   S
    Zr56   O61       0.94401      .   S
    N3     O61       1.90369      .   S
    Zr56   O62       1.32757      .   S
    N7     O62       2.38526      .   S
    Zr56   O63       0.93373      .   S
    N12    O63       1.90611      .   S
    Zr56   O64       2.67625      .   S
    N5     O64       6.03523  1_545   S
    Zr65   O66       0.93592      .   S
    N2     O66       1.90904      .   S
    Zr65   O67       1.32643      .   S
    N10    O67       2.38375      .   S
    Zr65   O68       0.94234      .   S
    N14    O68       1.89939      .   S
    Zr65   O69       2.68049      .   S
    N1     O69       6.05253      .   S
    Zr65   O70       0.93373      .   S
    N14    O70       1.90607      .   S
    Zr65   O71       0.94407      .   S
    N2     O71       1.90368      .   S
    Zr65   O72       1.32760      .   S
    N18    O72       2.38530      .   S
    Zr65   O73       2.67718      .   S
    N1     O73       6.03857  1_565   S
    Zr74   O75       1.33201      .   S
    N11    O75       2.38829  1_455   S
    Zr74   O76       0.93210      .   S
    N16    O76       1.90318      .   S
    Zr74   O77       0.93813      .   S
    N15    O77       1.89378      .   S
    Zr74   O78       2.67922      .   S
    N0     O78       6.05304      .   S
    Zr74   O79       1.32425      .   S
    N17    O79       2.38075  1_455   S
    Zr74   O80       0.93138      .   S
    N15    O80       1.89813      .   S
    Zr74   O81       0.94171      .   S
    N16    O81       1.89596      .   S
    Zr74   O82       2.68042      .   S
    N0     O82       6.03892  1_565   S
    Zr83   O84       1.33098      .   S
    N14    O84       2.38746      .   S
    Zr83   O85       0.94206      .   S
    N17    O85       1.89562      .   S
    Zr83   O86       0.92882      .   S
    N11    O86       1.89443      .   S
    Zr83   O87       2.67893      .   S
    N5     O87       6.03993  1_654   S
    Zr83   O88       1.32779      .   S
    N2     O88       2.38379      .   S
    Zr83   O89       0.93142      .   S
    N17    O89       1.90494      .   S
    Zr83   O90       0.93634      .   S
    N11    O90       1.88876      .   S
    Zr83   O91       2.67419      .   S
    N5     O91       6.03300  1_655   S
