# CIF file generated by openbabel 2.4.90, see http://openbabel.sf.net
data_I
_chemical_name_common ''
_cell_length_a 21.644
_cell_length_b 13.83
_cell_length_c 13.69
_cell_angle_alpha 90.487
_cell_angle_beta 89.967
_cell_angle_gamma 90.27
_space_group_name_H-M_alt 'P 1'
_space_group_name_Hall 'P 1'
loop_
    _symmetry_equiv_pos_as_xyz
    x,y,z
loop_
    _atom_site_label
    _atom_site_type_symbol
    _atom_site_fract_x
    _atom_site_fract_y
    _atom_site_fract_z
    _atom_site_occupancy
    Zr0     Zr   0.37081   0.34141   0.72042   1.000
    Zr1     Zr   0.87136   0.34164   0.72027   1.000
    Zr2     Zr   0.37062   0.15803   0.77953   1.000
    Zr3     Zr   0.86986   0.15796   0.77962   1.000
    Zr4     Zr   0.12022   0.27917   0.84213   1.000
    Zr5     Zr   0.62100   0.27923   0.84203   1.000
    Zr6     Zr   0.12027   0.22066   0.65449   1.000
    Zr7     Zr   0.62111   0.22078   0.65446   1.000
    Zr8     Zr   0.12871   0.65838   0.27960   1.000
    Zr9     Zr   0.62922   0.65861   0.27953   1.000
    Zr10    Zr   0.13017   0.84206   0.22033   1.000
    Zr11    Zr   0.62941   0.84199   0.22043   1.000
    Zr12    Zr   0.37903   0.72079   0.15792   1.000
    Zr13    Zr   0.87981   0.72085   0.15784   1.000
    Zr14    Zr   0.37893   0.77924   0.34550   1.000
    Zr15    Zr   0.87976   0.77936   0.34547   1.000
    O16     O    0.87978   0.75011   0.25166   1.000
    O17     O    0.37898   0.75002   0.25171   1.000
    O18     O    0.12944   0.75022   0.24997   1.000
    O19     O    0.62931   0.75030   0.24998   1.000
    O20     O    0.62105   0.25001   0.74825   1.000
    O21     O    0.12025   0.24991   0.74831   1.000
    O22     O    0.87061   0.24980   0.74994   1.000
    O23     O    0.37071   0.24972   0.74997   1.000
    N24     N    0.62652   0.74857   0.75074   1.000
    O25     O    0.51460   0.72012   0.92513   1.000
    O26     O    0.73730   0.57376   0.72071   1.000
    O27     O    0.73667   0.92437   0.78010   1.000
    O28     O    0.51467   0.77830   0.57720   1.000
    N29     N    0.12673   0.74871   0.75085   1.000
    O30     O    0.01505   0.72024   0.92516   1.000
    O31     O    0.23719   0.92443   0.78013   1.000
    O32     O    0.23728   0.57378   0.72086   1.000
    O33     O    0.01515   0.77838   0.57727   1.000
    N34     N    0.26983   0.20567   0.62797   1.000
    O35     O    0.31235   0.23878   0.64959   1.000
    O36     O    0.31230   0.19294   0.66437   1.000
    O37     O    0.21698   0.21022   0.63575   1.000
    N38     N    0.73020   0.79433   0.37198   1.000
    O39     O    0.78305   0.78979   0.36420   1.000
    O40     O    0.68772   0.80708   0.33557   1.000
    O41     O    0.68768   0.76123   0.35035   1.000
    N42     N    0.37352   0.25144   0.24921   1.000
    O43     O    0.26337   0.07565   0.21984   1.000
    O44     O    0.48537   0.22172   0.42275   1.000
    O45     O    0.48544   0.27989   0.07482   1.000
    O46     O    0.26276   0.42626   0.27922   1.000
    N47     N    0.87296   0.25131   0.24910   1.000
    O48     O    0.76267   0.07560   0.21983   1.000
    O49     O    0.98471   0.22164   0.42269   1.000
    O50     O    0.98481   0.27978   0.07480   1.000
    O51     O    0.76258   0.42624   0.27908   1.000
    N52     N    0.98060   0.87008   0.20824   1.000
    O53     O    0.03345   0.86175   0.21163   1.000
    O54     O    0.93813   0.83443   0.19529   1.000
    O55     O    0.93812   0.84906   0.24220   1.000
    N56     N    0.47990   0.86980   0.20855   1.000
    O57     O    0.53274   0.86147   0.21192   1.000
    O58     O    0.43742   0.83426   0.19550   1.000
    O59     O    0.43739   0.84887   0.24240   1.000
    N60     N    0.97934   0.63000   0.29316   1.000
    O61     O    0.03215   0.63842   0.28915   1.000
    O62     O    0.93719   0.65106   0.25996   1.000
    O63     O    0.93718   0.66569   0.30687   1.000
    N64     N    0.22956   0.79386   0.37244   1.000
    O65     O    0.28236   0.78934   0.36458   1.000
    O66     O    0.18744   0.80681   0.33586   1.000
    O67     O    0.18708   0.76089   0.35067   1.000
    N68     N    0.52041   0.36957   0.70683   1.000
    O69     O    0.46755   0.36118   0.71087   1.000
    O70     O    0.56284   0.34869   0.73997   1.000
    O71     O    0.56286   0.33408   0.69308   1.000
    N72     N    0.02073   0.37004   0.70677   1.000
    O73     O    0.96793   0.36161   0.71077   1.000
    O74     O    0.06287   0.34897   0.73997   1.000
    O75     O    0.06288   0.33434   0.69306   1.000
    N76     N    0.73028   0.70695   0.12898   1.000
    O77     O    0.78313   0.71116   0.13754   1.000
    O78     O    0.68779   0.73995   0.15014   1.000
    O79     O    0.68775   0.69410   0.16491   1.000
    N80     N    0.47961   0.63045   0.29311   1.000
    O81     O    0.43719   0.65133   0.25998   1.000
    O82     O    0.43717   0.66594   0.30687   1.000
    O83     O    0.53248   0.63884   0.28906   1.000
    N84     N    0.26975   0.29306   0.87099   1.000
    O85     O    0.31228   0.30591   0.83505   1.000
    O86     O    0.31224   0.26007   0.84983   1.000
    O87     O    0.21690   0.28885   0.86242   1.000
    N88     N    0.77033   0.29357   0.87096   1.000
    O89     O    0.81286   0.30631   0.83498   1.000
    O90     O    0.81248   0.26039   0.84981   1.000
    O91     O    0.71754   0.28928   0.86237   1.000
    N92     N    0.77047   0.20619   0.62751   1.000
    O93     O    0.81259   0.19323   0.66409   1.000
    O94     O    0.81297   0.23915   0.64926   1.000
    O95     O    0.71767   0.21071   0.63537   1.000
    N96     N    0.01943   0.12994   0.79166   1.000
    O97     O    0.06191   0.15097   0.75773   1.000
    O98     O    0.06190   0.16559   0.80464   1.000
    O99     O    0.96658   0.13827   0.78828   1.000
    N100    N    0.52013   0.13022   0.79140   1.000
    O101    O    0.56264   0.15115   0.75756   1.000
    O102    O    0.56261   0.16576   0.80445   1.000
    O103    O    0.46729   0.13855   0.78804   1.000
    N104    N    0.22970   0.70646   0.12898   1.000
    O105    O    0.28250   0.71075   0.13757   1.000
    O106    O    0.18755   0.73964   0.15013   1.000
    O107    O    0.18719   0.69372   0.16495   1.000
loop_
    _geom_bond_atom_site_label_1
    _geom_bond_atom_site_label_2
    _geom_bond_distance
    _geom_bond_site_symmetry_2
    _ccdc_geom_bond_type
    Zr13   O16       1.34325      .   S
    Zr15   O16       1.34325      .   S
    Zr12   O17       1.34281      .   S
    Zr14   O17       1.34281      .   S
    Zr10   O18       1.33664      .   S
    Zr8    O18       1.33664      .   S
    Zr11   O19       1.33429      .   S
    Zr9    O19       1.33429      .   S
    Zr7    O20       1.34274      .   S
    Zr5    O20       1.34274      .   S
    Zr6    O21       1.34332      .   S
    Zr4    O21       1.34332      .   S
    Zr1    O22       1.33682      .   S
    Zr3    O22       1.33682      .   S
    Zr0    O23       1.33431      .   S
    Zr2    O23       1.33431      .   S
    N24    O25       3.42382      .   S
    Zr12   O25       4.33077  1_554   S
    N24    O26       3.43506      .   S
    Zr1    O26       4.33735      .   S
    N24    O27       3.41851      .   S
    Zr3    O27       4.31971  1_545   S
    N24    O28       3.42145      .   S
    Zr14   O28       4.32506      .   S
    N29    O30       3.41943      .   S
    Zr13   O30       4.32491  1_654   S
    N29    O31       3.42219      .   S
    Zr2    O31       4.32325  1_545   S
    N29    O32       3.43264      .   S
    Zr0    O32       4.33219      .   S
    N29    O33       3.41767      .   S
    Zr15   O33       4.32085  1_655   S
    N34    O35       1.06685      .   S
    Zr0    O35       2.12521      .   S
    N34    O36       1.06202      .   S
    Zr2    O36       2.08151      .   S
    N34    O37       1.15086      .   S
    Zr6    O37       2.11413      .   S
    N38    O39       1.15085      .   S
    Zr15   O39       2.11410      .   S
    N38    O40       1.06208      .   S
    Zr11   O40       2.08135      .   S
    N38    O41       1.06686      .   S
    Zr9    O41       2.12513      .   S
    N42    O43       3.41861      .   S
    Zr10   O43       4.31981  1_565   S
    N42    O44       3.42140      .   S
    Zr7    O44       4.32496      .   S
    N42    O45       3.42375      .   S
    Zr5    O45       4.33068  1_556   S
    N42    O46       3.43487      .   S
    Zr8    O46       4.33716      .   S
    N47    O48       3.41971      .   S
    Zr11   O48       4.32090  1_565   S
    N47    O49       3.42026      .   S
    Zr6    O49       4.32336  1_455   S
    N47    O50       3.42191      .   S
    Zr4    O50       4.32726  1_456   S
    N47    O51       3.43010      .   S
    Zr9    O51       4.32978      .   S
    N52    O53       1.15124  1_655   S
    Zr10   O53       2.11586      .   S
    N52    O54       1.05535      .   S
    Zr13   O54       2.07177      .   S
    N52    O55       1.07011      .   S
    Zr15   O55       2.12916      .   S
    N56    O57       1.15089      .   S
    Zr11   O57       2.11429      .   S
    N56    O58       1.05521      .   S
    Zr12   O58       2.07192      .   S
    N56    O59       1.06972      .   S
    Zr14   O59       2.12850      .   S
    N60    O61       1.14959  1_655   S
    Zr8    O61       2.11105      .   S
    N60    O62       1.06257      .   S
    Zr13   O62       2.11307      .   S
    N60    O63       1.05560      .   S
    Zr15   O63       2.07330      .   S
    N64    O65       1.14979      .   S
    Zr14   O65       2.11122      .   S
    N64    O66       1.05715      .   S
    Zr10   O66       2.07289      .   S
    N64    O67       1.06594      .   S
    Zr8    O67       2.12451      .   S
    N68    O69       1.15093      .   S
    Zr0    O69       2.11446      .   S
    N68    O70       1.06650      .   S
    Zr5    O70       2.12045      .   S
    N68    O71       1.05970      .   S
    Zr7    O71       2.08025      .   S
    N72    O73       1.14957  1_455   S
    Zr1    O73       2.11095      .   S
    N72    O74       1.06242      .   S
    Zr4    O74       2.11311      .   S
    N72    O75       1.05542      .   S
    Zr6    O75       2.07293      .   S
    N76    O77       1.15097      .   S
    Zr13   O77       2.11453      .   S
    N76    O78       1.06738      .   S
    Zr11   O78       2.12297      .   S
    N76    O79       1.05861      .   S
    Zr9    O79       2.07674      .   S
    N80    O81       1.06643      .   S
    Zr12   O81       2.12035      .   S
    N80    O82       1.05971      .   S
    Zr14   O82       2.08024      .   S
    N80    O83       1.15093      .   S
    Zr9    O83       2.11442      .   S
    N84    O85       1.05862      .   S
    Zr0    O85       2.07679      .   S
    N84    O86       1.06734      .   S
    Zr2    O86       2.12292      .   S
    N84    O87       1.15098      .   S
    Zr4    O87       2.11455      .   S
    N88    O89       1.05842      .   S
    Zr1    O89       2.07676      .   S
    N88    O90       1.06207      .   S
    Zr3    O90       2.11291      .   S
    N88    O91       1.14997      .   S
    Zr5    O91       2.11185      .   S
    N92    O93       1.05712      .   S
    Zr3    O93       2.07285      .   S
    N92    O94       1.06599      .   S
    Zr1    O94       2.12435      .   S
    N92    O95       1.14981      .   S
    Zr7    O95       2.11130      .   S
    N96    O97       1.06999      .   S
    Zr6    O97       2.12882      .   S
    N96    O98       1.05541      .   S
    Zr4    O98       2.07188      .   S
    N96    O99       1.15124  1_455   S
    Zr3    O99       2.11584      .   S
    N100   O101      1.06970      .   S
    Zr7    O101      2.12848      .   S
    N100   O102      1.05523      .   S
    Zr5    O102      2.07191      .   S
    N100   O103      1.15090      .   S
    Zr2    O103      2.11433      .   S
    N104   O105      1.14995      .   S
    Zr12   O105      2.11179      .   S
    N104   O106      1.06210      .   S
    Zr10   O106      2.11298      .   S
    N104   O107      1.05815      .   S
    Zr8    O107      2.07586      .   S
