# CIF file generated by openbabel 2.4.90, see http://openbabel.sf.net
data_I
_chemical_name_common ''
_cell_length_a 14.559
_cell_length_b 15.905
_cell_length_c 18.506
_cell_angle_alpha 89.983
_cell_angle_beta 86.855
_cell_angle_gamma 90.096
_space_group_name_H-M_alt 'P 1'
_space_group_name_Hall 'P 1'
loop_
    _symmetry_equiv_pos_as_xyz
    x,y,z
loop_
    _atom_site_label
    _atom_site_type_symbol
    _atom_site_fract_x
    _atom_site_fract_y
    _atom_site_fract_z
    _atom_site_occupancy
    Zr0     Zr   0.17954   0.15282   0.62511   1.000
    Zr1     Zr   0.17954   0.15282   0.12510   1.000
    Zr2     Zr   0.32032   0.65289   0.62478   1.000
    Zr3     Zr   0.32032   0.65289   0.12477   1.000
    Zr4     Zr   0.82043   0.84718   0.87488   1.000
    Zr5     Zr   0.82043   0.84718   0.37488   1.000
    Zr6     Zr   0.67965   0.34711   0.87522   1.000
    Zr7     Zr   0.67965   0.34711   0.37521   1.000
    N8      N    0.99998   0.50000   0.49999   1.000
    O9      O    0.85391   0.45102   0.44501   1.000
    O10     O    0.14605   0.54898   0.55498   1.000
    N11     N    0.99998   1.00000   0.24999   1.000
    O12     O    0.86553   0.15368   0.30640   1.000
    O13     O    0.13444   0.84631   0.19358   1.000
    O14     O    0.06936   0.07630   0.41744   1.000
    O15     O    0.93061   0.92370   0.08254   1.000
    N16     N    0.49998   0.50000   0.99999   1.000
    O17     O    0.36561   0.34623   0.05641   1.000
    O18     O    0.63436   0.65377   0.94358   1.000
    O19     O    0.43055   0.57619   0.83247   1.000
    O20     O    0.56942   0.42381   0.16751   1.000
    N21     N    0.00050   0.50001   0.75000   1.000
    O22     O    0.92972   0.65547   0.79392   1.000
    O23     O    0.07076   0.34454   0.70608   1.000
    N24     N    0.99998   0.50000   0.99999   1.000
    O25     O    0.85391   0.45102   0.94501   1.000
    O26     O    0.14605   0.54898   0.05498   1.000
    N27     N    0.99999   0.00000   0.75082   1.000
    O28     O    0.06936   0.07630   0.91785   1.000
    O29     O    0.13444   0.84631   0.69400   1.000
    O30     O    0.93061   0.92370   0.58296   1.000
    O31     O    0.86553   0.15368   0.80682   1.000
    N32     N    0.49999   0.00000   0.00032   1.000
    O33     O    0.57053   0.15539   0.95633   1.000
    O34     O    0.42945   0.84461   0.04398   1.000
    N35     N    0.49998   0.00000   0.24999   1.000
    O36     O    0.35379   0.04893   0.19490   1.000
    O37     O    0.64617   0.95107   0.30507   1.000
    N38     N    0.49999   0.00000   0.49999   1.000
    O39     O    0.57053   0.15539   0.45616   1.000
    O40     O    0.42945   0.84461   0.54383   1.000
    N41     N    0.00049   0.50000   0.24999   1.000
    O42     O    0.92972   0.65547   0.29391   1.000
    O43     O    0.07076   0.34454   0.20607   1.000
    N44     N    0.49999   0.50000   0.49999   1.000
    O45     O    0.63436   0.65377   0.44358   1.000
    O46     O    0.36561   0.34622   0.55641   1.000
    O47     O    0.43055   0.57618   0.33247   1.000
    O48     O    0.56942   0.42381   0.66752   1.000
    N49     N    0.49998   0.00000   0.75000   1.000
    O50     O    0.64617   0.95107   0.80508   1.000
    O51     O    0.35379   0.04893   0.69491   1.000
loop_
    _geom_bond_atom_site_label_1
    _geom_bond_atom_site_label_2
    _geom_bond_distance
    _geom_bond_site_symmetry_2
    _ccdc_geom_bond_type
    N8     O9        2.52927      .   S
    Zr7    O9        3.34420      .   S
    N8     O10       2.52930  1_655   S
    Zr2    O10       3.34425      .   S
    N11    O12       3.26955  1_565   S
    Zr7    O12       4.24985      .   S
    N11    O13       3.26956  1_655   S
    Zr3    O13       4.24988      .   S
    N11    O14       3.52667  1_665   S
    Zr0    O14       4.41556      .   S
    N11    O15       3.52652      .   S
    Zr4    O15       4.41540  1_556   S
    N16    O17       3.26462  1_556   S
    Zr1    O17       4.24371      .   S
    N16    O18       3.26459      .   S
    Zr4    O18       4.24370      .   S
    N16    O19       3.52799      .   S
    Zr2    O19       4.41785      .   S
    N16    O20       3.52801  1_556   S
    Zr7    O20       4.41789      .   S
    N21    O22       2.78460  1_455   S
    Zr4    O22       3.71914      .   S
    N21    O23       2.78202      .   S
    Zr0    O23       3.71622      .   S
    N24    O25       2.52923      .   S
    Zr6    O25       3.34418      .   S
    N24    O26       2.52926  1_656   S
    Zr3    O26       3.34422      .   S
    N27    O28       3.51970  1_655   S
    Zr1    O28       4.40864  1_554   S
    N27    O29       3.27175  1_645   S
    Zr2    O29       4.25191      .   S
    N27    O30       3.53350  1_545   S
    Zr5    O30       4.42233      .   S
    N27    O31       3.26737      .   S
    Zr6    O31       4.24783      .   S
    N32    O33       2.77928  1_554   S
    Zr6    O33       3.71404      .   S
    N32    O34       2.77770  1_545   S
    Zr3    O34       3.71186      .   S
    N35    O36       2.53339      .   S
    Zr1    O36       3.34763      .   S
    N35    O37       2.53343  1_545   S
    Zr5    O37       3.34774      .   S
    N38    O39       2.77851      .   S
    Zr7    O39       3.71296      .   S
    N38    O40       2.77853  1_545   S
    Zr2    O40       3.71302      .   S
    N41    O42       2.78461  1_455   S
    Zr5    O42       3.71915      .   S
    N41    O43       2.78202      .   S
    Zr1    O43       3.71619      .   S
    N44    O45       3.26461      .   S
    Zr5    O45       4.24370      .   S
    N44    O46       3.26464      .   S
    Zr0    O46       4.24372      .   S
    N44    O47       3.52806      .   S
    Zr3    O47       4.41793      .   S
    N44    O48       3.52808      .   S
    Zr6    O48       4.41796      .   S
    N49    O50       2.53342  1_545   S
    Zr4    O50       3.34772      .   S
    N49    O51       2.53341      .   S
    Zr0    O51       3.34764      .   S
