# CIF file generated by openbabel 2.4.90, see http://openbabel.sf.net
data_I
_chemical_name_common ''
_cell_length_a 27.92
_cell_length_b 14.179
_cell_length_c 14.88
_cell_angle_alpha 65.279
_cell_angle_beta 62.007
_cell_angle_gamma 60.493
_space_group_name_H-M_alt 'P 1'
_space_group_name_Hall 'P 1'
loop_
    _symmetry_equiv_pos_as_xyz
    x,y,z
loop_
    _atom_site_label
    _atom_site_type_symbol
    _atom_site_fract_x
    _atom_site_fract_y
    _atom_site_fract_z
    _atom_site_occupancy
    H0      H    0.35949   0.19809   0.24368   1.000
    H1      H    0.85949   0.19808   0.24368   1.000
    H2      H    0.41065   0.33144   0.14995   1.000
    H3      H    0.91066   0.33144   0.14996   1.000
    H4      H    0.06307   0.08091   0.99762   1.000
    H5      H    0.56307   0.08091   0.99762   1.000
    H6      H    0.01137   0.94629   0.09706   1.000
    H7      H    0.51137   0.94629   0.09706   1.000
    H8      H    0.34101   0.86152   0.04042   1.000
    H9      H    0.84101   0.86153   0.04042   1.000
    H10     H    0.16740   0.10377   0.13225   1.000
    H11     H    0.66740   0.10377   0.13225   1.000
    H12     H    0.08046   0.30187   0.25627   1.000
    H13     H    0.58046   0.30187   0.25627   1.000
    H14     H    0.15139   0.16851   0.35007   1.000
    H15     H    0.65139   0.16851   0.35007   1.000
    H16     H    0.10224   0.41903   0.50244   1.000
    H17     H    0.60224   0.41903   0.50244   1.000
    H18     H    0.03304   0.55367   0.40286   1.000
    H19     H    0.53304   0.55367   0.40286   1.000
    H20     H    0.29204   0.63832   0.45958   1.000
    H21     H    0.79205   0.63832   0.45959   1.000
    H22     H    0.28541   0.39640   0.36757   1.000
    H23     H    0.78542   0.39640   0.36758   1.000
    H24     H    0.14059   0.80187   0.75620   1.000
    H25     H    0.64060   0.80187   0.75620   1.000
    H26     H    0.08943   0.66853   0.84997   1.000
    H27     H    0.58943   0.66852   0.84998   1.000
    H28     H    0.43702   0.91906   0.00232   1.000
    H29     H    0.93702   0.91905   0.00233   1.000
    H30     H    0.48873   0.05366   0.90288   1.000
    H31     H    0.98873   0.05366   0.90289   1.000
    H32     H    0.15907   0.13843   0.95951   1.000
    H33     H    0.65907   0.13843   0.95951   1.000
    H34     H    0.33268   0.89618   0.86768   1.000
    H35     H    0.83269   0.89619   0.86768   1.000
    H36     H    0.41960   0.69807   0.74370   1.000
    H37     H    0.91960   0.69807   0.74370   1.000
    H38     H    0.34868   0.83144   0.64900   1.000
    H39     H    0.84868   0.83144   0.64990   1.000
    H40     H    0.39783   0.58092   0.49750   1.000
    H41     H    0.89784   0.58092   0.49750   1.000
    H42     H    0.46704   0.44628   0.59710   1.000
    H43     H    0.96704   0.44628   0.59710   1.000
    H44     H    0.20803   0.36166   0.54030   1.000
    H45     H    0.70804   0.36166   0.54034   1.000
    H46     H    0.21466   0.60358   0.63230   1.000
    H47     H    0.71467   0.60358   0.63235   1.000
    C48     C    0.39887   0.98806   0.22915   1.000
    C49     C    0.89887   0.98806   0.22915   1.000
    C50     C    0.43220   0.06483   0.17523   1.000
    C51     C    0.93220   0.06483   0.17524   1.000
    C52     C    0.40428   0.17322   0.19048   1.000
    C53     C    0.90428   0.17322   0.19049   1.000
    C54     C    0.43313   0.24757   0.13752   1.000
    C55     C    0.93313   0.24756   0.13752   1.000
    C56     C    0.49034   0.21505   0.06679   1.000
    C57     C    0.99034   0.21504   0.06679   1.000
    C58     C    0.01955   0.29699   0.00000   1.000
    C59     C    0.51955   0.29699   0.00000   1.000
    C60     C    0.01873   0.10601   0.05244   1.000
    C61     C    0.51873   0.10601   0.05244   1.000
    C62     C    0.99000   0.03107   0.10734   1.000
    C63     C    0.49000   0.03107   0.10730   1.000
    C64     C    0.25878   0.96333   0.19922   1.000
    C65     C    0.75878   0.96333   0.19922   1.000
    C66     C    0.25448   0.98072   0.09664   1.000
    C67     C    0.75448   0.98072   0.09664   1.000
    C68     C    0.30131   0.92185   0.02230   1.000
    C69     C    0.80131   0.92186   0.02200   1.000
    C70     C    0.20326   0.05889   0.07358   1.000
    C71     C    0.70326   0.05889   0.07357   1.000
    C72     C    0.00754   0.51193   0.27074   1.000
    C73     C    0.50754   0.51193   0.27074   1.000
    C74     C    0.05227   0.43515   0.32469   1.000
    C75     C    0.55227   0.43515   0.32469   1.000
    C76     C    0.08618   0.32675   0.30948   1.000
    C77     C    0.58618   0.32675   0.30940   1.000
    C78     C    0.12569   0.25239   0.36250   1.000
    C79     C    0.62569   0.25239   0.36250   1.000
    C80     C    0.13123   0.28489   0.43320   1.000
    C81     C    0.63123   0.28489   0.43320   1.000
    C82     C    0.17115   0.20295   0.49383   1.000
    C83     C    0.67116   0.20295   0.49383   1.000
    C84     C    0.09791   0.39394   0.44759   1.000
    C85     C    0.59791   0.39394   0.44759   1.000
    C86     C    0.05919   0.46890   0.39262   1.000
    C87     C    0.55919   0.46891   0.39262   1.000
    O88     O    0.79009   0.88749   0.53490   1.000
    O89     O    0.13733   0.39302   0.72022   1.000
    O90     O    0.63733   0.39302   0.72022   1.000
    O91     O    0.14187   0.52063   0.76352   1.000
    C92     C    0.34010   0.53670   0.30067   1.000
    C93     C    0.84010   0.53670   0.30060   1.000
    C94     C    0.29320   0.51928   0.40320   1.000
    C95     C    0.79320   0.51928   0.40328   1.000
    C96     C    0.27343   0.57804   0.47767   1.000
    C97     C    0.77343   0.57804   0.47768   1.000
    C98     C    0.26949   0.44120   0.42630   1.000
    C99     C    0.76950   0.44120   0.42630   1.000
    C100    C    0.10123   0.01188   0.77079   1.000
    C101    C    0.60123   0.01187   0.77079   1.000
    C102    C    0.06789   0.93512   0.82470   1.000
    C103    C    0.56789   0.93512   0.82470   1.000
    C104    C    0.09581   0.82674   0.80945   1.000
    C105    C    0.59581   0.82673   0.80945   1.000
    C106    C    0.06695   0.75240   0.86241   1.000
    C107    C    0.56696   0.75239   0.86242   1.000
    C108    C    0.00975   0.78492   0.93310   1.000
    C109    C    0.50975   0.78492   0.93315   1.000
    C110    C    0.48054   0.70297   0.99371   1.000
    C111    C    0.98054   0.70297   0.99371   1.000
    C112    C    0.48136   0.89395   0.94750   1.000
    C113    C    0.98136   0.89395   0.94750   1.000
    C114    C    0.51010   0.96889   0.89261   1.000
    C115    C    0.00000   0.96889   0.89261   1.000
    C116    C    0.24131   0.03663   0.80071   1.000
    C117    C    0.74131   0.03664   0.80070   1.000
    C118    C    0.24560   0.01923   0.90329   1.000
    C119    C    0.74560   0.01924   0.90329   1.000
    C120    C    0.19877   0.07810   0.97760   1.000
    C121    C    0.69878   0.07810   0.97763   1.000
    C122    C    0.29682   0.94106   0.92636   1.000
    C123    C    0.79683   0.94107   0.92635   1.000
    C124    C    0.49254   0.48803   0.72921   1.000
    C125    C    0.99254   0.48803   0.72921   1.000
    C126    C    0.44780   0.56480   0.67527   1.000
    C127    C    0.94780   0.56480   0.67527   1.000
    C128    C    0.41389   0.67320   0.69048   1.000
    C129    C    0.91389   0.67320   0.69048   1.000
    C130    C    0.37437   0.74756   0.63746   1.000
    C131    C    0.87438   0.74756   0.63746   1.000
    C132    C    0.36884   0.71506   0.56669   1.000
    C133    C    0.86884   0.71506   0.56669   1.000
    C134    C    0.32892   0.79700   0.50610   1.000
    C135    C    0.82893   0.79700   0.50610   1.000
    C136    C    0.40216   0.60601   0.55236   1.000
    C137    C    0.90217   0.60601   0.55236   1.000
    C138    C    0.44088   0.53104   0.60734   1.000
    C139    C    0.94089   0.53104   0.60734   1.000
    C140    C    0.15998   0.46327   0.69925   1.000
    C141    C    0.65999   0.46327   0.69925   1.000
    C142    C    0.20688   0.48070   0.59664   1.000
    C143    C    0.70688   0.48070   0.59665   1.000
    C144    C    0.22664   0.42194   0.52224   1.000
    C145    C    0.72665   0.42194   0.52225   1.000
    C146    C    0.23058   0.55878   0.57362   1.000
    C147    C    0.73059   0.55878   0.57360   1.000
    O148    O    0.34643   0.02637   0.28970   1.000
    O149    O    0.84643   0.02637   0.28978   1.000
    O150    O    0.42361   0.89218   0.21075   1.000
    O151    O    0.92361   0.89218   0.21075   1.000
    O152    O    0.06499   0.27987   0.92450   1.000
    O153    O    0.56499   0.27987   0.92450   1.000
    O154    O    0.49868   0.38754   0.03494   1.000
    O155    O    0.99868   0.38754   0.03494   1.000
    O156    O    0.30605   0.89291   0.22026   1.000
    O157    O    0.80606   0.89291   0.22026   1.000
    O158    O    0.21610   0.02088   0.26341   1.000
    O159    O    0.71610   0.02088   0.26341   1.000
    O160    O    0.00449   0.47359   0.21028   1.000
    O161    O    0.50449   0.47359   0.21028   1.000
    O162    O    0.47521   0.60791   0.28890   1.000
    O163    O    0.97521   0.60791   0.28897   1.000
    O164    O    0.16713   0.22005   0.57558   1.000
    O165    O    0.66713   0.22005   0.57558   1.000
    O166    O    0.20998   0.11247   0.46504   1.000
    O167    O    0.70998   0.11247   0.46504   1.000
    O168    O    0.36275   0.60696   0.27971   1.000
    O169    O    0.86276   0.60696   0.27971   1.000
    O170    O    0.35821   0.47934   0.23641   1.000
    O171    O    0.85821   0.47934   0.23641   1.000
    O172    O    0.15366   0.97357   0.71010   1.000
    O173    O    0.65367   0.97357   0.71016   1.000
    O174    O    0.07649   0.10775   0.78919   1.000
    O175    O    0.57650   0.10775   0.78919   1.000
    O176    O    0.43509   0.72009   0.07543   1.000
    O177    O    0.93509   0.72009   0.07543   1.000
    O178    O    0.00141   0.61242   0.96499   1.000
    O179    O    0.50141   0.61242   0.96499   1.000
    O180    O    0.19403   0.10705   0.77966   1.000
    O181    O    0.69403   0.10705   0.77966   1.000
    O182    O    0.28398   0.97908   0.73652   1.000
    O183    O    0.78399   0.97909   0.73652   1.000
    O184    O    0.49560   0.52639   0.78963   1.000
    O185    O    0.99560   0.52639   0.78964   1.000
    O186    O    0.02485   0.39204   0.71100   1.000
    O187    O    0.52485   0.39204   0.71100   1.000
    O188    O    0.33296   0.77990   0.42435   1.000
    O189    O    0.83296   0.77990   0.42435   1.000
    O190    O    0.29009   0.88748   0.53400   1.000
    O191    O    0.64188   0.52062   0.76352   1.000
loop_
    _geom_bond_atom_site_label_1
    _geom_bond_atom_site_label_2
    _geom_bond_distance
    _geom_bond_site_symmetry_2
    _ccdc_geom_bond_type
    C59    O154      1.33985      .   S
    C59    C56       1.48654      .   S
    C59    O153      1.23186  1_554   S
    C58    O155      1.33988  1_455   S
    C58    C57       1.48646  1_455   S
    C58    O152      1.23187  1_554   S
    H28    C112      1.08866  1_554   S
    H29    C113      1.08871  1_554   S
    C69    H9        1.09116      .   S
    C69    C67       1.40600      .   S
    C69    C123      1.38745  1_554   S
    C68    H8        1.08938      .   S
    C68    C66       1.40333      .   S
    C68    C122      1.39172  1_554   S
    C61    C56       1.40506      .   S
    C61    C63       1.39239      .   S
    C61    H5        1.08868  1_554   S
    C60    C57       1.40505  1_455   S
    C60    C62       1.39237  1_455   S
    C60    H4        1.08866  1_554   S
    C57    C55       1.40497      .   S
    C56    C54       1.40499      .   S
    C71    C67       1.40461  1_545   S
    C71    H11       1.08915      .   S
    C71    C121      1.39170  1_554   S
    C70    C66       1.40453  1_545   S
    C70    H10       1.08907      .   S
    C70    C120      1.39229  1_554   S
    O176   C110      1.28170  1_554   S
    O177   C111      1.28169  1_554   S
    C66    C64       1.49434      .   S
    C67    C65       1.49432      .   S
    H6     C62       1.08899  1_465   S
    H7     C63       1.08880  1_565   S
    C63    C50       1.40269      .   S
    C62    C51       1.40245      .   S
    C55    H3        1.08734      .   S
    C55    C53       1.38803      .   S
    C54    H2        1.08730      .   S
    C54    C52       1.38803      .   S
    C50    C52       1.40232      .   S
    C50    C48       1.50374  1_545   S
    C51    C53       1.40231      .   S
    C51    C49       1.50376  1_545   S
    C52    H0        1.08839      .   S
    C53    H1        1.08833      .   S
    C64    O156      1.29050      .   S
    C64    O158      1.27421  1_565   S
    C65    O157      1.29048      .   S
    C65    O159      1.27423  1_565   S
    O160   C72       1.28010      .   S
    O161   C73       1.28013      .   S
    O151   C49       1.26849      .   S
    O150   C48       1.26848      .   S
    C49    O149      1.28021  1_565   S
    C48    O148      1.27980  1_565   S
    O171   C93       1.27303      .   S
    O170   C92       1.27390      .   S
    H13    C77       1.08719      .   S
    H12    C76       1.08830      .   S
    C73    O162      1.26819      .   S
    C73    C75       1.50340      .   S
    C72    O163      1.26851  1_455   S
    C72    C74       1.50340      .   S
    O169   C93       1.29088      .   S
    O168   C92       1.29054      .   S
    C93    C95       1.49497      .   S
    C92    C94       1.49376      .   S
    C77    C75       1.40271      .   S
    C77    C79       1.38878      .   S
    C76    C74       1.40234      .   S
    C76    C78       1.38804      .   S
    C75    C87       1.40254      .   S
    C74    C86       1.40253      .   S
    H14    C78       1.08732      .   S
    H15    C79       1.08732      .   S
    C78    C80       1.40414      .   S
    C79    C81       1.40415      .   S
    H22    C98       1.08919      .   S
    H23    C99       1.08907      .   S
    C87    H19       1.08859      .   S
    C87    C85       1.39235      .   S
    C86    H18       1.08860      .   S
    C86    C84       1.39235      .   S
    C94    C98       1.40416      .   S
    C94    C96       1.40425      .   S
    C95    C99       1.40449      .   S
    C95    C97       1.40336      .   S
    O188   C134      1.28150      .   S
    O189   C135      1.28150      .   S
    C99    C145      1.39161      .   S
    C98    C144      1.39153      .   S
    C80    C84       1.40535      .   S
    C80    C82       1.48246      .   S
    C81    C85       1.40537      .   S
    C81    C83       1.48246      .   S
    C85    H17       1.08874      .   S
    C84    H16       1.08872      .   S
    H20    C96       1.08942      .   S
    H21    C97       1.08942      .   S
    O167   C83       1.28785      .   S
    O166   C82       1.28784      .   S
    C96    C146      1.39161      .   S
    C97    C147      1.39136      .   S
    C83    O165      1.28162      .   S
    C82    O164      1.28161      .   S
    H40    C136      1.08877      .   S
    H41    C137      1.08876      .   S
    C135   O88       1.28791      .   S
    C135   C133      1.48198      .   S
    C134   O190      1.28323      .   S
    C134   C132      1.48196      .   S
    C144   H44       1.08955      .   S
    C144   C142      1.40335      .   S
    C145   H45       1.08942      .   S
    C145   C143      1.40335      .   S
    C136   C132      1.40509      .   S
    C136   C138      1.39239      .   S
    C137   C133      1.40509      .   S
    C137   C139      1.39239      .   S
    C132   C130      1.40502      .   S
    C133   C131      1.40500      .   S
    C147   C143      1.40439      .   S
    C147   H47       1.08945      .   S
    C146   C142      1.40452      .   S
    C146   H46       1.08857      .   S
    C142   C140      1.49437      .   S
    C143   C141      1.49429      .   S
    H43    C139      1.08859      .   S
    H42    C138      1.08860      .   S
    C139   C127      1.40248      .   S
    C138   C126      1.40250      .   S
    C130   H38       1.08317      .   S
    C130   C128      1.38802      .   S
    C131   H39       1.08735      .   S
    C131   C129      1.38802      .   S
    C126   C128      1.40232      .   S
    C126   C124      1.50342      .   S
    C127   C129      1.40231      .   S
    C127   C125      1.50342      .   S
    C128   H36       1.08840      .   S
    C129   H37       1.08838      .   S
    C141   O90       1.29049      .   S
    C141   O191      1.27397      .   S
    C140   O89       1.29050      .   S
    C140   O91       1.27398      .   S
    O172   C100      1.28046  1_565   S
    O173   C101      1.28017  1_565   S
    O187   C124      1.26855      .   S
    O186   C125      1.26853  1_455   S
    C125   O185      1.28019      .   S
    C124   O184      1.28008      .   S
    O182   C116      1.27421  1_565   S
    O183   C117      1.27413  1_565   S
    H24    C104      1.08858      .   S
    H25    C105      1.08862      .   S
    C100   O174      1.26843      .   S
    C100   C102      1.50374  1_545   S
    C101   O175      1.26845      .   S
    C101   C103      1.50376  1_545   S
    O180   C116      1.29052      .   S
    O181   C117      1.29048      .   S
    C117   C119      1.49444      .   S
    C116   C118      1.49429      .   S
    C105   C103      1.40229      .   S
    C105   C107      1.38803      .   S
    C104   C102      1.40228      .   S
    C104   C106      1.38803      .   S
    C103   C114      1.40258      .   S
    C102   C115      1.59871      .   S
    H26    C106      1.08732      .   S
    H27    C107      1.08735      .   S
    C106   C108      1.40475      .   S
    C107   C109      1.40496      .   S
    H35    C123      1.08906      .   S
    H34    C122      1.08916      .   S
    C115   H31       1.14158  1_465   S
    C115   C113      1.21935  1_455   S
    C114   H30       1.08893  1_565   S
    C114   C112      1.39238      .   S
    C119   C123      1.40453  1_545   S
    C119   C121      1.40332      .   S
    C118   C122      1.40458  1_545   S
    C118   C120      1.40306      .   S
    C108   C113      1.40529  1_455   S
    C108   C111      1.48156  1_455   S
    C109   C112      1.40504      .   S
    C109   C110      1.48162      .   S
    H33    C121      1.08938      .   S
    H32    C120      1.08921      .   S
    O179   C110      1.28793      .   S
    O178   C111      1.28794  1_455   S
