# CIF file generated by openbabel 2.4.90, see http://openbabel.sf.net
data_I
_chemical_name_common ''
_cell_length_a 27.92
_cell_length_b 14.179
_cell_length_c 14.88
_cell_angle_alpha 65.279
_cell_angle_beta 62.007
_cell_angle_gamma 60.493
_space_group_name_H-M_alt 'P 1'
_space_group_name_Hall 'P 1'
loop_
    _symmetry_equiv_pos_as_xyz
    x,y,z
loop_
    _atom_site_label
    _atom_site_type_symbol
    _atom_site_fract_x
    _atom_site_fract_y
    _atom_site_fract_z
    _atom_site_occupancy
    Zr0     Zr   0.26922   0.97617   0.36924   1.000
    Zr1     Zr   0.76922   0.97617   0.36924   1.000
    Zr2     Zr   0.44199   0.52381   0.13068   1.000
    Zr3     Zr   0.94200   0.52381   0.13068   1.000
    Zr4     Zr   0.23086   0.02379   0.63069   1.000
    Zr5     Zr   0.73087   0.02379   0.63069   1.000
    Zr6     Zr   0.05809   0.47616   0.86924   1.000
    Zr7     Zr   0.55809   0.47616   0.86924   1.000
    Zr8     Zr   0.39300   0.74999   0.24989   1.000
    Zr9     Zr   0.89301   0.75000   0.24989   1.000
    Zr10    Zr   0.10708   0.24997   0.75004   1.000
    Zr11    Zr   0.60708   0.24997   0.75004   1.000
    N12     N    0.59094   0.35838   0.38038   1.000
    O13     O    0.61402   0.29669   0.52159   1.000
    O14     O    0.51253   0.51866   0.32489   1.000
    O15     O    0.66527   0.20135   0.39876   1.000
    O16     O    0.53209   0.42854   0.27543   1.000
    N17     N    0.96034   0.14159   0.11920   1.000
    O18     O    0.02319   0.20326   0.97824   1.000
    O19     O    0.96534   0.29863   0.10101   1.000
    O20     O    0.88408   0.07143   0.22436   1.000
    O21     O    0.93432   0.98134   0.17476   1.000
    N22     N    0.09094   0.35837   0.38038   1.000
    O23     O    0.01253   0.51866   0.32491   1.000
    O24     O    0.03209   0.42854   0.27543   1.000
    O25     O    0.11402   0.29669   0.52160   1.000
    O26     O    0.16527   0.20135   0.39876   1.000
    N27     N    0.75004   0.99998   0.99994   1.000
    O28     O    0.70030   0.08925   0.88240   1.000
    O29     O    0.79979   0.91072   0.11751   1.000
    N30     N    0.46034   0.14159   0.11919   1.000
    O31     O    0.46534   0.29863   0.10100   1.000
    O32     O    0.52319   0.20326   0.97823   1.000
    O33     O    0.43432   0.98134   0.17476   1.000
    O34     O    0.38408   0.07143   0.22433   1.000
    N35     N    0.40913   0.64158   0.61945   1.000
    O36     O    0.33480   0.79861   0.60090   1.000
    O37     O    0.48755   0.48129   0.67498   1.000
    O38     O    0.38606   0.70326   0.47828   1.000
    O39     O    0.46799   0.57143   0.72444   1.000
    N40     N    0.25004   0.99998   0.99996   1.000
    O41     O    0.29978   0.91071   0.11752   1.000
    O42     O    0.20030   0.08924   0.88241   1.000
    N43     N    0.53976   0.85836   0.88034   1.000
    O44     O    0.61601   0.92852   0.77538   1.000
    O45     O    0.47690   0.79670   0.02150   1.000
    O46     O    0.56577   0.01861   0.82498   1.000
    O47     O    0.53475   0.70133   0.89873   1.000
    N48     N    0.75004   0.49999   0.49996   1.000
    O49     O    0.81396   0.58923   0.38238   1.000
    O50     O    0.68612   0.41074   0.61754   1.000
    N51     N    0.90913   0.64158   0.61956   1.000
    O52     O    0.98755   0.48129   0.67504   1.000
    O53     O    0.96799   0.57143   0.72450   1.000
    O54     O    0.88606   0.70326   0.47834   1.000
    O55     O    0.83481   0.79861   0.60118   1.000
    N56     N    0.25004   0.49999   0.49995   1.000
    O57     O    0.31396   0.58923   0.38237   1.000
    O58     O    0.18612   0.41074   0.61754   1.000
    N59     N    0.03912   0.85836   0.88034   1.000
    O60     O    0.03443   0.70133   0.89873   1.000
    O61     O    0.97658   0.79670   0.02150   1.000
    O62     O    0.06545   0.01861   0.82498   1.000
    O63     O    0.11569   0.92852   0.77537   1.000
    O64     O    0.49744   0.72670   0.97789   1.000
    O65     O    0.32564   0.51673   0.34716   1.000
    O66     O    0.24249   0.01670   0.84718   1.000
    O67     O    0.15033   0.22670   0.47794   1.000
    O68     O    0.50265   0.27326   0.02184   1.000
    O69     O    0.67444   0.48324   0.65276   1.000
    O70     O    0.75760   0.98326   0.15274   1.000
    O71     O    0.84975   0.77325   0.52200   1.000
    O72     O    0.34975   0.77325   0.52183   1.000
    O73     O    0.25759   0.98325   0.15275   1.000
    O74     O    0.65033   0.22670   0.47794   1.000
    O75     O    0.74249   0.01671   0.84717   1.000
    O76     O    0.82564   0.51673   0.34716   1.000
    O77     O    0.99712   0.72670   0.97789   1.000
    O78     O    0.00265   0.27326   0.02184   1.000
    O79     O    0.17444   0.48324   0.65275   1.000
loop_
    _geom_bond_atom_site_label_1
    _geom_bond_atom_site_label_2
    _geom_bond_distance
    _geom_bond_site_symmetry_2
    _ccdc_geom_bond_type
    N12    O13       2.18506      .   S
    Zr11   O13       3.10741      .   S
    N12    O14       2.42209      .   S
    Zr8    O14       3.57661      .   S
    N12    O15       2.19336      .   S
    Zr1    O15       3.10778  1_565   S
    N12    O16       2.37223      .   S
    Zr2    O16       3.47809      .   S
    N17    O18       2.18302  1_654   S
    Zr10   O18       3.10418      .   S
    N17    O19       2.19486      .   S
    Zr3    O19       3.11007      .   S
    N17    O20       2.37234      .   S
    Zr1    O20       3.47815  1_565   S
    N17    O21       2.42173  1_545   S
    Zr9    O21       3.57635      .   S
    N22    O23       2.42199      .   S
    Zr9    O23       3.57670  1_655   S
    N22    O24       2.37225      .   S
    Zr3    O24       3.47809  1_655   S
    N22    O25       2.18498      .   S
    Zr10   O25       3.10734      .   S
    N22    O26       2.19335      .   S
    Zr0    O26       3.10780  1_565   S
    N27    O28       2.29942  1_565   S
    Zr11   O28       3.32589      .   S
    N27    O29       2.29964  1_556   S
    Zr9    O29       3.32609      .   S
    N30    O31       2.19487      .   S
    Zr2    O31       3.11009      .   S
    N30    O32       2.18302  1_554   S
    Zr11   O32       3.10416      .   S
    N30    O33       2.42173  1_545   S
    Zr8    O33       3.57636      .   S
    N30    O34       2.37235      .   S
    Zr0    O34       3.47817  1_565   S
    N35    O36       2.19369      .   S
    Zr4    O36       3.10829  1_545   S
    N35    O37       2.42234      .   S
    Zr11   O37       3.57707      .   S
    N35    O38       2.18422      .   S
    Zr8    O38       3.10657      .   S
    N35    O39       2.37295      .   S
    Zr7    O39       3.47881      .   S
    N40    O41       2.29954  1_556   S
    Zr8    O41       3.32601      .   S
    N40    O42       2.29952  1_565   S
    Zr10   O42       3.32598      .   S
    N43    O44       2.37216      .   S
    Zr5    O44       3.47808  1_545   S
    N43    O45       2.18427  1_556   S
    Zr8    O45       3.10607      .   S
    N43    O46       2.42231  1_565   S
    Zr11   O46       3.57703      .   S
    N43    O47       2.19387      .   S
    Zr7    O47       3.10869      .   S
    N48    O49       2.29977      .   S
    Zr9    O49       3.32650      .   S
    N48    O50       2.29979      .   S
    Zr11   O50       3.32653      .   S
    N51    O52       2.42199      .   S
    Zr10   O52       3.57672  1_455   S
    N51    O53       2.37227      .   S
    Zr6    O53       3.47805  1_455   S
    N51    O54       2.18500      .   S
    Zr9    O54       3.10739      .   S
    N51    O55       2.19332      .   S
    Zr5    O55       3.10773  1_545   S
    N56    O57       2.29976      .   S
    Zr8    O57       3.32650      .   S
    N56    O58       2.29981      .   S
    Zr10   O58       3.32654      .   S
    N59    O60       2.18943      .   S
    Zr6    O60       3.10550      .   S
    N59    O61       2.17944  1_456   S
    Zr9    O61       3.10304      .   S
    N59    O62       2.42762  1_565   S
    Zr10   O62       3.58255      .   S
    N59    O63       2.37915      .   S
    Zr4    O63       3.48529  1_545   S
    Zr2    O64       3.38431  1_554   S
    N43    O64       2.29878      .   S
    Zr2    O65       3.34176      .   S
    N56    O65       2.28427      .   S
    Zr4    O66       3.34229      .   S
    N40    O66       2.28455  1_565   S
    Zr4    O67       3.38456      .   S
    N22    O67       2.29895      .   S
    Zr7    O68       3.38407  1_556   S
    N30    O68       2.29866      .   S
    Zr7    O69       3.34176      .   S
    N48    O69       2.28432      .   S
    Zr1    O70       3.34248      .   S
    N27    O70       2.28472  1_556   S
    Zr1    O71       3.38455      .   S
    N51    O71       2.29893      .   S
    Zr0    O72       3.38297      .   S
    N35    O72       2.29946      .   S
    Zr0    O73       3.34237      .   S
    N40    O73       2.28460  1_556   S
    Zr5    O74       3.38462      .   S
    N12    O74       2.29900      .   S
    Zr5    O75       3.34217      .   S
    N27    O75       2.28442  1_565   S
    Zr3    O76       3.34178      .   S
    N48    O76       2.28429      .   S
    Zr3    O77       3.37934  1_554   S
    N59    O77       2.29334  1_455   S
    Zr6    O78       3.38403  1_556   S
    N17    O78       2.29864  1_655   S
    Zr6    O79       3.34178      .   S
    N56    O79       2.28434      .   S
