# CIF file generated by openbabel 2.4.90, see http://openbabel.sf.net
data_I
_chemical_name_common ''
_cell_length_a 27.92
_cell_length_b 14.179
_cell_length_c 14.88
_cell_angle_alpha 65.279
_cell_angle_beta 62.007
_cell_angle_gamma 60.493
_space_group_name_H-M_alt 'P 1'
_space_group_name_Hall 'P 1'
loop_
    _symmetry_equiv_pos_as_xyz
    x,y,z
loop_
    _atom_site_label
    _atom_site_type_symbol
    _atom_site_fract_x
    _atom_site_fract_y
    _atom_site_fract_z
    _atom_site_occupancy
    Zr0     Zr   0.26922   0.97617   0.36924   1.000
    Zr1     Zr   0.76922   0.97617   0.36924   1.000
    Zr2     Zr   0.44199   0.52381   0.13068   1.000
    Zr3     Zr   0.94200   0.52381   0.13068   1.000
    Zr4     Zr   0.23086   0.02379   0.63069   1.000
    Zr5     Zr   0.73087   0.02379   0.63069   1.000
    Zr6     Zr   0.05809   0.47616   0.86924   1.000
    Zr7     Zr   0.55809   0.47616   0.86924   1.000
    Zr8     Zr   0.39300   0.74999   0.24989   1.000
    Zr9     Zr   0.89301   0.75000   0.24989   1.000
    Zr10    Zr   0.10708   0.24997   0.75004   1.000
    Zr11    Zr   0.60708   0.24997   0.75004   1.000
    N12     N    0.59094   0.35838   0.38038   1.000
    O13     O    0.61402   0.29669   0.52159   1.000
    O14     O    0.64497   0.24015   0.49176   1.000
    O15     O    0.51253   0.51866   0.32489   1.000
    O16     O    0.66527   0.20135   0.39876   1.000
    O17     O    0.65569   0.21325   0.46412   1.000
    O18     O    0.53209   0.42854   0.27543   1.000
    N19     N    0.96034   0.14159   0.11920   1.000
    O20     O    0.01094   0.25981   0.00804   1.000
    O21     O    0.02319   0.20326   0.97824   1.000
    O22     O    0.96534   0.29863   0.10101   1.000
    O23     O    0.99436   0.28672   0.03565   1.000
    O24     O    0.88408   0.07143   0.22436   1.000
    O25     O    0.93432   0.98134   0.17476   1.000
    N26     N    0.09094   0.35837   0.38038   1.000
    O27     O    0.01253   0.51866   0.32491   1.000
    O28     O    0.03209   0.42854   0.27543   1.000
    O29     O    0.14497   0.24015   0.49176   1.000
    O30     O    0.11402   0.29669   0.52160   1.000
    O31     O    0.16527   0.20135   0.39876   1.000
    O32     O    0.15568   0.21325   0.46412   1.000
    N33     N    0.75004   0.99998   0.99994   1.000
    O34     O    0.74635   0.99925   0.15813   1.000
    O35     O    0.73125   0.03270   0.85256   1.000
    O36     O    0.70030   0.08925   0.88240   1.000
    O37     O    0.75374   0.00071   0.84177   1.000
    O38     O    0.76884   0.96726   0.14735   1.000
    O39     O    0.79979   0.91072   0.11751   1.000
    N40     N    0.46034   0.14159   0.11919   1.000
    O41     O    0.46534   0.29863   0.10100   1.000
    O42     O    0.49436   0.28672   0.03564   1.000
    O43     O    0.51094   0.25981   0.00803   1.000
    O44     O    0.52319   0.20326   0.97823   1.000
    O45     O    0.43432   0.98134   0.17476   1.000
    O46     O    0.38408   0.07143   0.22433   1.000
    N47     N    0.40913   0.64158   0.61945   1.000
    O48     O    0.33480   0.79861   0.60090   1.000
    O49     O    0.34439   0.78670   0.53553   1.000
    O50     O    0.48755   0.48129   0.67498   1.000
    O51     O    0.35511   0.75981   0.50812   1.000
    O52     O    0.38606   0.70326   0.47828   1.000
    O53     O    0.46799   0.57143   0.72444   1.000
    N54     N    0.25004   0.99998   0.99996   1.000
    O55     O    0.25373   0.00071   0.84178   1.000
    O56     O    0.24635   0.99925   0.15814   1.000
    O57     O    0.26884   0.96726   0.14736   1.000
    O58     O    0.29978   0.91071   0.11752   1.000
    O59     O    0.23124   0.03270   0.85257   1.000
    O60     O    0.20030   0.08924   0.88241   1.000
    N61     N    0.53976   0.85836   0.88034   1.000
    O62     O    0.61601   0.92852   0.77538   1.000
    O63     O    0.48915   0.74016   0.99170   1.000
    O64     O    0.47690   0.79670   0.02150   1.000
    O65     O    0.56577   0.01861   0.82498   1.000
    O66     O    0.53475   0.70133   0.89873   1.000
    O67     O    0.50573   0.71324   0.96409   1.000
    N68     N    0.75004   0.49999   0.49996   1.000
    O69     O    0.82507   0.50078   0.34175   1.000
    O70     O    0.82621   0.53268   0.35258   1.000
    O71     O    0.81396   0.58923   0.38238   1.000
    O72     O    0.67501   0.49919   0.65817   1.000
    O73     O    0.67388   0.46729   0.64734   1.000
    O74     O    0.68612   0.41074   0.61754   1.000
    N75     N    0.90913   0.64158   0.61956   1.000
    O76     O    0.98755   0.48129   0.67504   1.000
    O77     O    0.96799   0.57143   0.72450   1.000
    O78     O    0.85511   0.75981   0.50818   1.000
    O79     O    0.88606   0.70326   0.47834   1.000
    O80     O    0.83481   0.79861   0.60118   1.000
    O81     O    0.84439   0.78670   0.53582   1.000
    N82     N    0.25004   0.49999   0.49995   1.000
    O83     O    0.32507   0.50078   0.34175   1.000
    O84     O    0.32621   0.53269   0.35257   1.000
    O85     O    0.31396   0.58923   0.38237   1.000
    O86     O    0.18612   0.41074   0.61754   1.000
    O87     O    0.17387   0.46729   0.64734   1.000
    O88     O    0.17501   0.49919   0.65816   1.000
    N89     N    0.03912   0.85836   0.88034   1.000
    O90     O    0.03443   0.70133   0.89873   1.000
    O91     O    0.00541   0.71324   0.96409   1.000
    O92     O    0.98883   0.74016   0.99170   1.000
    O93     O    0.97658   0.79670   0.02150   1.000
    O94     O    0.06545   0.01861   0.82498   1.000
    O95     O    0.11569   0.92852   0.77537   1.000
loop_
    _geom_bond_atom_site_label_1
    _geom_bond_atom_site_label_2
    _geom_bond_distance
    _geom_bond_site_symmetry_2
    _ccdc_geom_bond_type
    N12    O13       2.18506      .   S
    Zr11   O13       3.10741      .   S
    N12    O14       2.31611      .   S
    Zr5    O14       3.39688      .   S
    N12    O15       2.42209      .   S
    Zr8    O15       3.57661      .   S
    N12    O16       2.19336      .   S
    Zr1    O16       3.10778  1_565   S
    N12    O17       2.31520      .   S
    Zr5    O17       3.39502      .   S
    N12    O18       2.37223      .   S
    Zr2    O18       3.47809      .   S
    N19    O20       2.31549  1_655   S
    Zr6    O20       3.39646  1_556   S
    N19    O21       2.18302  1_654   S
    Zr10   O21       3.10418      .   S
    N19    O22       2.19486      .   S
    Zr3    O22       3.11007      .   S
    N19    O23       2.31510      .   S
    Zr6    O23       3.39426  1_456   S
    N19    O24       2.37234      .   S
    Zr1    O24       3.47815  1_565   S
    N19    O25       2.42173  1_545   S
    Zr9    O25       3.57635      .   S
    N26    O27       2.42199      .   S
    Zr9    O27       3.57670  1_655   S
    N26    O28       2.37225      .   S
    Zr3    O28       3.47809  1_655   S
    N26    O29       2.31605      .   S
    Zr4    O29       3.39683      .   S
    N26    O30       2.18498      .   S
    Zr10   O30       3.10734      .   S
    N26    O31       2.19335      .   S
    Zr0    O31       3.10780  1_565   S
    N26    O32       2.31515      .   S
    Zr4    O32       3.39495      .   S
    N33    O34       2.30315  1_556   S
    Zr1    O34       3.34652      .   S
    N33    O35       2.29997  1_565   S
    Zr5    O35       3.36134      .   S
    N33    O36       2.29942  1_565   S
    Zr11   O36       3.32589      .   S
    N33    O37       2.30283  1_565   S
    Zr5    O37       3.34623      .   S
    N33    O38       2.30024  1_556   S
    Zr1    O38       3.36167      .   S
    N33    O39       2.29964  1_556   S
    Zr9    O39       3.32609      .   S
    N40    O41       2.19487      .   S
    Zr2    O41       3.11009      .   S
    N40    O42       2.31511      .   S
    Zr7    O42       3.39430  1_556   S
    N40    O43       2.31551      .   S
    Zr7    O43       3.39649  1_556   S
    N40    O44       2.18302  1_554   S
    Zr11   O44       3.10416      .   S
    N40    O45       2.42173  1_545   S
    Zr8    O45       3.57636      .   S
    N40    O46       2.37235      .   S
    Zr0    O46       3.47817  1_565   S
    N47    O48       2.19369      .   S
    Zr4    O48       3.10829  1_545   S
    N47    O49       2.31648      .   S
    Zr0    O49       3.39205      .   S
    N47    O50       2.42234      .   S
    Zr11   O50       3.57707      .   S
    N47    O51       2.31543      .   S
    Zr0    O51       3.39635      .   S
    N47    O52       2.18422      .   S
    Zr8    O52       3.10657      .   S
    N47    O53       2.37295      .   S
    Zr7    O53       3.47881      .   S
    N54    O55       2.30297  1_565   S
    Zr4    O55       3.34635      .   S
    N54    O56       2.30302  1_556   S
    Zr0    O56       3.34642      .   S
    N54    O57       2.30012  1_556   S
    Zr0    O57       3.36156      .   S
    N54    O58       2.29954  1_556   S
    Zr8    O58       3.32601      .   S
    N54    O59       2.30009  1_565   S
    Zr4    O59       3.36147      .   S
    N54    O60       2.29952  1_565   S
    Zr10   O60       3.32598      .   S
    N61    O62       2.37216      .   S
    Zr5    O62       3.47808  1_545   S
    N61    O63       2.31587      .   S
    Zr2    O63       3.39658  1_554   S
    N61    O64       2.18427  1_556   S
    Zr8    O64       3.10607      .   S
    N61    O65       2.42231  1_565   S
    Zr11   O65       3.57703      .   S
    N61    O66       2.19387      .   S
    Zr7    O66       3.10869      .   S
    N61    O67       2.31500      .   S
    Zr2    O67       3.39472  1_554   S
    N68    O69       2.30264      .   S
    Zr3    O69       3.34593      .   S
    N68    O70       2.29991      .   S
    Zr3    O70       3.36087      .   S
    N68    O71       2.29977      .   S
    Zr9    O71       3.32650      .   S
    N68    O72       2.30265      .   S
    Zr7    O72       3.34592      .   S
    N68    O73       2.29993      .   S
    Zr7    O73       3.36084      .   S
    N68    O74       2.29979      .   S
    Zr11   O74       3.32653      .   S
    N75    O76       2.42199      .   S
    Zr10   O76       3.57672  1_455   S
    N75    O77       2.37227      .   S
    Zr6    O77       3.47805  1_455   S
    N75    O78       2.31603      .   S
    Zr1    O78       3.39682      .   S
    N75    O79       2.18500      .   S
    Zr9    O79       3.10739      .   S
    N75    O80       2.19332      .   S
    Zr5    O80       3.10773  1_545   S
    N75    O81       2.31514      .   S
    Zr1    O81       3.39494      .   S
    N82    O83       2.30261      .   S
    Zr2    O83       3.34591      .   S
    N82    O84       2.29989      .   S
    Zr2    O84       3.36085      .   S
    N82    O85       2.29976      .   S
    Zr8    O85       3.32650      .   S
    N82    O86       2.29981      .   S
    Zr10   O86       3.32654      .   S
    N82    O87       2.29996      .   S
    Zr6    O87       3.36087      .   S
    N82    O88       2.30269      .   S
    Zr6    O88       3.34594      .   S
    N89    O90       2.18943      .   S
    Zr6    O90       3.10550      .   S
    N89    O91       2.30975      .   S
    Zr3    O91       3.38965  1_654   S
    N89    O92       2.31030  1_455   S
    Zr3    O92       3.39173  1_554   S
    N89    O93       2.17944  1_456   S
    Zr9    O93       3.10304      .   S
    N89    O94       2.42762  1_565   S
    Zr10   O94       3.58255      .   S
    N89    O95       2.37915      .   S
    Zr4    O95       3.48529  1_545   S
