# CIF file generated by openbabel 2.4.90, see http://openbabel.sf.net
data_I
_chemical_name_common ''
_cell_length_a 8.746
_cell_length_b 12.063
_cell_length_c 24.0786
_cell_angle_alpha 85.582
_cell_angle_beta 79.8119
_cell_angle_gamma 89.886
_space_group_name_H-M_alt 'P 1'
_space_group_name_Hall 'P 1'
loop_
    _symmetry_equiv_pos_as_xyz
    x,y,z
loop_
    _atom_site_label
    _atom_site_type_symbol
    _atom_site_fract_x
    _atom_site_fract_y
    _atom_site_fract_z
    _atom_site_occupancy
    Zr0     Zr   0.80889   0.49266   0.79256   1.000
    Zr1     Zr   0.58095   0.00721   0.20389   1.000
    Zr2     Zr   0.18415   0.50917   0.20715   1.000
    Zr3     Zr   0.41171   0.00000   0.79638   1.000
    Zr4     Zr   0.33663   0.01437   0.66478   1.000
    Zr5     Zr   0.65618   0.98935   0.33553   1.000
    Zr6     Zr   0.98430   0.49263   0.33523   1.000
    Zr7     Zr   0.00942   0.51136   0.66422   1.000
    O8      O    0.61857   0.99828   0.26971   1.000
    O9      O    0.08423   0.50090   0.27119   1.000
    O10     O    0.90915   0.50201   0.72839   1.000
    O11     O    0.37417   0.00718   0.73058   1.000
    N12     N    0.49632   0.50145   0.00005   1.000
    O13     O    0.47616   0.70867   0.90540   1.000
    O14     O    0.51633   0.29529   0.09475   1.000
    N15     N    0.49682   0.00209   0.49975   1.000
    O16     O    0.69634   0.22299   0.43271   1.000
    O17     O    0.29728   0.78113   0.56677   1.000
    N18     N    0.89034   0.17104   0.71731   1.000
    O19     O    0.93712   0.29587   0.69826   1.000
    O20     O    0.67502   0.09941   0.69896   1.000
    O21     O    0.10770   0.11378   0.75041   1.000
    N22     N    0.49628   0.00157   0.00007   1.000
    O23     O    0.36818   0.79642   0.09573   1.000
    O24     O    0.62450   0.20614   0.90426   1.000
    N25     N    0.99681   0.50136   0.50002   1.000
    O26     O    0.13586   0.28199   0.56755   1.000
    O27     O    0.85745   0.72100   0.43259   1.000
    N28     N    0.40355   0.67267   0.71782   1.000
    O29     O    0.37567   0.79802   0.69872   1.000
    O30     O    0.63682   0.59935   0.69895   1.000
    O31     O    0.15519   0.61227   0.74855   1.000
    N32     N    0.58983   0.33004   0.28203   1.000
    O33     O    0.61729   0.20501   0.30130   1.000
    O34     O    0.35680   0.40401   0.30072   1.000
    O35     O    0.40677   0.40814   0.26870   1.000
    O36     O    0.83820   0.38983   0.25128   1.000
    N37     N    0.10289   0.83367   0.28279   1.000
    O38     O    0.05644   0.70844   0.30156   1.000
    O39     O    0.31808   0.90493   0.30117   1.000
    O40     O    0.88545   0.89104   0.24962   1.000
loop_
    _geom_bond_atom_site_label_1
    _geom_bond_atom_site_label_2
    _geom_bond_distance
    _geom_bond_site_symmetry_2
    _ccdc_geom_bond_type
    Zr1    O8        1.67022  1_545   S
    Zr5    O8        1.67022      .   S
    Zr2    O9        1.62838      .   S
    Zr6    O9        1.62838  1_655   S
    Zr7    O10       1.63195  1_455   S
    Zr0    O10       1.63195      .   S
    Zr4    O11       1.66978      .   S
    Zr3    O11       1.66978      .   S
    N12    O13       3.27664  1_554   S
    Zr3    O13       4.31902  1_545   S
    N12    O14       3.26801      .   S
    Zr1    O14       4.29102      .   S
    N15    O16       3.33323      .   S
    Zr6    O16       4.38148      .   S
    N15    O17       3.33371  1_545   S
    Zr7    O17       4.38202      .   S
    N18    O19       1.57325      .   S
    Zr7    O19       2.70615  1_455   S
    N18    O20       2.20187      .   S
    Zr4    O20       3.39001      .   S
    N18    O21       2.27416  1_655   S
    Zr3    O21       3.31222      .   S
    N22    O23       3.30236  1_545   S
    Zr2    O23       4.34245      .   S
    N22    O24       3.29964  1_554   S
    Zr0    O24       4.34002      .   S
    N25    O26       3.33900  1_655   S
    Zr4    O26       4.38797      .   S
    N25    O27       3.34153      .   S
    Zr5    O27       4.39397      .   S
    N28    O29       1.57747      .   S
    Zr4    O29       2.71326  1_545   S
    N28    O30       2.20864      .   S
    Zr7    O30       3.40651  1_455   S
    N28    O31       2.26961      .   S
    Zr0    O31       3.32036  1_655   S
    N32    O33       1.57412      .   S
    Zr5    O33       2.70713  1_565   S
    N32    O34       2.20963      .   S
    Zr6    O34       3.40774  1_655   S
    N32    O35       1.91916      .   S
    Zr2    O35       2.86461      .   S
    N32    O36       2.26764      .   S
    Zr2    O36       3.31669  1_455   S
    N37    O38       1.57589      .   S
    Zr6    O38       2.70799  1_655   S
    N37    O39       2.19919      .   S
    Zr5    O39       3.38719      .   S
    N37    O40       2.27609  1_455   S
    Zr1    O40       3.32470  1_545   S
