# CIF file generated by openbabel 2.4.90, see http://openbabel.sf.net
data_I
_chemical_name_common ''
_cell_length_a 8.746
_cell_length_b 12.063
_cell_length_c 24.0786
_cell_angle_alpha 85.582
_cell_angle_beta 79.8119
_cell_angle_gamma 89.886
_space_group_name_H-M_alt 'P 1'
_space_group_name_Hall 'P 1'
loop_
    _symmetry_equiv_pos_as_xyz
    x,y,z
loop_
    _atom_site_label
    _atom_site_type_symbol
    _atom_site_fract_x
    _atom_site_fract_y
    _atom_site_fract_z
    _atom_site_occupancy
    N0      N    0.49632   0.50145   0.00005   1.000
    N1      N    0.49682   0.00209   0.49975   1.000
    N2      N    0.89034   0.17104   0.71731   1.000
    N3      N    0.49628   0.00157   0.00007   1.000
    N4      N    0.99681   0.50136   0.50002   1.000
    N5      N    0.40355   0.67267   0.71782   1.000
    N6      N    0.58983   0.33004   0.28203   1.000
    N7      N    0.10289   0.83367   0.28279   1.000
    Zr8     Zr   0.37417   0.00718   0.73058   1.000
    O9      O    0.42516   0.85793   0.81799   1.000
    O10     O    0.24094   0.06048   0.74049   1.000
    O11     O    0.25501   0.14459   0.64906   1.000
    O12     O    0.52459   0.05330   0.71477   1.000
    O13     O    0.37492   0.90260   0.71465   1.000
    Zr14    Zr   0.90915   0.50201   0.72839   1.000
    O15     O    0.03217   0.55714   0.73847   1.000
    O16     O    0.76683   0.35407   0.81633   1.000
    O17     O    0.92313   0.39894   0.71332   1.000
    O18     O    0.10322   0.64157   0.64758   1.000
    O19     O    0.77299   0.55068   0.71367   1.000
    Zr20    Zr   0.61856   0.99828   0.26971   1.000
    O21     O    0.73801   0.85964   0.35115   1.000
    O22     O    0.61793   0.10165   0.28550   1.000
    O23     O    0.46832   0.95160   0.28544   1.000
    O24     O    0.56745   0.14679   0.18223   1.000
    O25     O    0.75201   0.94466   0.25967   1.000
    Zr26    Zr   0.08423   0.50090   0.27119   1.000
    O27     O    0.22052   0.45245   0.28596   1.000
    O28     O    0.89028   0.36194   0.35195   1.000
    O29     O    0.07033   0.60467   0.28638   1.000
    O30     O    0.96122   0.44536   0.26123   1.000
    O31     O    0.24550   0.45452   0.26995   1.000
    O32     O    0.22620   0.64866   0.18346   1.000
loop_
    _geom_bond_atom_site_label_1
    _geom_bond_atom_site_label_2
    _geom_bond_distance
    _geom_bond_site_symmetry_2
    _ccdc_geom_bond_type
    Zr8    O9        2.75965  1_545   S
    N0     O9        6.01222  1_554   S
    Zr8    O10       1.32303      .   S
    N2     O10       3.45929  1_655   S
    Zr8    O11       2.81094      .   S
    N4     O11       6.07860  1_655   S
    Zr8    O12       1.40652      .   S
    N2     O12       3.51489      .   S
    Zr8    O13       1.34622  1_545   S
    N5     O13       2.78080      .   S
    Zr14   O15       1.33375  1_655   S
    N5     O15       3.47553      .   S
    Zr14   O16       2.77694      .   S
    N3     O16       6.05741  1_554   S
    Zr14   O17       1.32123      .   S
    N2     O17       2.75720      .   S
    Zr14   O18       2.79998  1_655   S
    N1     O18       6.06415  1_545   S
    Zr14   O19       1.41532      .   S
    N5     O19       3.53630      .   S
    Zr20   O21       2.81892      .   S
    N4     O21       6.09065      .   S
    Zr20   O22       1.33104  1_565   S
    N6     O22       2.76172      .   S
    Zr20   O23       1.40757      .   S
    N7     O23       3.51383      .   S
    Zr20   O24       2.75588  1_565   S
    N0     O24       5.99969      .   S
    Zr20   O25       1.32673      .   S
    N7     O25       3.46323  1_455   S
    Zr26   O27       1.41561      .   S
    N6     O27       3.53794      .   S
    Zr26   O28       2.79477  1_455   S
    N1     O28       6.05786      .   S
    Zr26   O29       1.33031      .   S
    N7     O29       2.77072      .   S
    Zr26   O30       1.33510  1_455   S
    N6     O30       3.47444      .   S
    Zr26   O31       1.51256      .   S
    N6     O31       3.41079      .   S
    Zr26   O32       2.77162      .   S
    N3     O32       6.05449  1_545   S
