# CIF file generated by openbabel 2.4.90, see http://openbabel.sf.net
data_I
_chemical_name_common ''
_cell_length_a 18.077
_cell_length_b 18.099
_cell_length_c 19.129
_cell_angle_alpha 89.93
_cell_angle_beta 90.006
_cell_angle_gamma 120.048
_space_group_name_H-M_alt 'P 1'
_space_group_name_Hall 'P 1'
loop_
    _symmetry_equiv_pos_as_xyz
    x,y,z
loop_
    _atom_site_label
    _atom_site_type_symbol
    _atom_site_fract_x
    _atom_site_fract_y
    _atom_site_fract_z
    _atom_site_occupancy
    Zn0     Zn   0.63580   0.12466   0.33008   1.000
    Zn1     Zn   0.48849   0.36409   0.33019   1.000
    Zn2     Zn   0.36416   0.48940   0.66975   1.000
    Zn3     Zn   0.51163   0.87560   0.66969   1.000
    Zn4     Zn   0.12459   0.63594   0.66987   1.000
    Zn5     Zn   0.66628   0.33318   0.26410   1.000
    Zn6     Zn   0.66601   0.33311   0.06940   1.000
    Zn7     Zn   0.33354   0.66694   0.73581   1.000
    Zn8     Zn   0.33328   0.66665   0.93058   1.000
    Zn9     Zn   0.87488   0.51091   0.33033   1.000
