# CIF file generated by openbabel 2.4.90, see http://openbabel.sf.net
data_I
_chemical_name_common 'VESTA_phase_1'
_cell_length_a 21.836
_cell_length_b 13.243
_cell_length_c 13.24
_cell_angle_alpha 119.454
_cell_angle_beta 90.024
_cell_angle_gamma 90.096
_space_group_name_H-M_alt 'P 1'
_space_group_name_Hall 'P 1'
loop_
    _symmetry_equiv_pos_as_xyz
    x,y,z
loop_
    _atom_site_label
    _atom_site_type_symbol
    _atom_site_fract_x
    _atom_site_fract_y
    _atom_site_fract_z
    _atom_site_occupancy
    Cd0     Cd   0.25004   0.66824   0.33257   1.000
    Cd1     Cd   0.75004   0.66731   0.33244   1.000
    Cd2     Cd   0.24999   0.33278   0.66759   1.000
    Cd3     Cd   0.74999   0.33185   0.66745   1.000
    H4      H    0.44490   0.57469   0.18744   1.000
    H5      H    0.94503   0.57388   0.18748   1.000
    H6      H    0.44538   0.61525   0.42617   1.000
    H7      H    0.94530   0.61600   0.42713   1.000
    H8      H    0.44504   0.81300   0.38459   1.000
    H9      H    0.94537   0.81268   0.38430   1.000
    H10     H    0.05474   0.61581   0.18726   1.000
    H11     H    0.55472   0.61600   0.18724   1.000
    H12     H    0.05510   0.81281   0.42610   1.000
    H13     H    0.55475   0.81247   0.42630   1.000
    H14     H    0.05497   0.57474   0.38572   1.000
    H15     H    0.55502   0.57343   0.38463   1.000
    H16     H    0.05499   0.42621   0.81250   1.000
    H17     H    0.55512   0.42541   0.81258   1.000
    H18     H    0.05472   0.38410   0.57289   1.000
    H19     H    0.55464   0.38483   0.57386   1.000
    H20     H    0.05465   0.18741   0.61571   1.000
    H21     H    0.55498   0.18710   0.61544   1.000
    H22     H    0.44530   0.38410   0.81278   1.000
    H23     H    0.94528   0.38428   0.81277   1.000
    H24     H    0.44527   0.18763   0.57372   1.000
    H25     H    0.94492   0.18728   0.57392   1.000
    H26     H    0.44500   0.42666   0.61540   1.000
    H27     H    0.94505   0.42535   0.61430   1.000
    C28     C    0.46907   0.54204   0.10523   1.000
    C29     C    0.96915   0.54161   0.10527   1.000
    C30     C    0.33886   0.49193   0.10320   1.000
    C31     C    0.83901   0.49101   0.10322   1.000
    C32     C    0.46933   0.56463   0.45846   1.000
    C33     C    0.96929   0.56502   0.45898   1.000
    C34     C    0.33929   0.61305   0.50890   1.000
    C35     C    0.83915   0.61248   0.50900   1.000
    C36     C    0.46915   0.89504   0.43527   1.000
    C37     C    0.96933   0.89487   0.43512   1.000
    C38     C    0.33918   0.89786   0.38641   1.000
    C39     C    0.83927   0.89695   0.38638   1.000
    C40     C    0.03074   0.56497   0.10513   1.000
    C41     C    0.53074   0.56505   0.10511   1.000
    C42     C    0.16079   0.61382   0.10260   1.000
    C43     C    0.66095   0.61308   0.10257   1.000
    C44     C    0.03094   0.89493   0.45840   1.000
    C45     C    0.53075   0.89473   0.45851   1.000
    C46     C    0.16113   0.89742   0.50884   1.000
    C47     C    0.66097   0.89652   0.50856   1.000
    C48     C    0.03086   0.54204   0.43591   1.000
    C49     C    0.53090   0.54135   0.43534   1.000
    C50     C    0.16085   0.49168   0.38759   1.000
    C51     C    0.66086   0.49063   0.38720   1.000
    C52     C    0.03088   0.45848   0.89476   1.000
    C53     C    0.53095   0.45806   0.89479   1.000
    C54     C    0.16101   0.50908   0.89681   1.000
    C55     C    0.66117   0.50816   0.89680   1.000
    C56     C    0.03074   0.43507   0.54105   1.000
    C57     C    0.53069   0.43545   0.54150   1.000
    C58     C    0.16088   0.38762   0.49103   1.000
    C59     C    0.66073   0.38704   0.49113   1.000
    C60     C    0.03069   0.10522   0.56489   1.000
    C61     C    0.53088   0.10506   0.56476   1.000
    C62     C    0.16075   0.10314   0.61360   1.000
    C63     C    0.66084   0.10223   0.61360   1.000
    C64     C    0.46928   0.43504   0.89491   1.000
    C65     C    0.96928   0.43513   0.89489   1.000
    C66     C    0.33908   0.38701   0.89745   1.000
    C67     C    0.83924   0.38628   0.89741   1.000
    C68     C    0.46927   0.10536   0.54152   1.000
    C69     C    0.96908   0.10516   0.54161   1.000
    C70     C    0.33905   0.10358   0.49147   1.000
    C71     C    0.83890   0.10266   0.49118   1.000
    C72     C    0.46912   0.45874   0.56469   1.000
    C73     C    0.96916   0.45805   0.56411   1.000
    C74     C    0.33916   0.50947   0.61284   1.000
    C75     C    0.83917   0.50841   0.61243   1.000
    C76     C    0.37177   0.45208   0.00021   1.000
    C77     C    0.87190   0.45138   0.00022   1.000
    C78     C    0.43646   0.47640   0.00000   1.000
    C79     C    0.93653   0.47604   0.00010   1.000
    C80     C    0.37197   0.54855   0.54821   1.000
    C81     C    0.87192   0.54789   0.54807   1.000
    C82     C    0.43657   0.52399   0.52380   1.000
    C83     C    0.93655   0.52367   0.52373   1.000
    C84     C    0.37189   0.00058   0.45162   1.000
    C85     C    0.87185   0.99983   0.45152   1.000
    C86     C    0.43653   0.00034   0.47614   1.000
    C87     C    0.93652   0.99996   0.47609   1.000
    C88     C    0.12812   0.54871   0.99980   1.000
    C89     C    0.62826   0.54800   0.99978   1.000
    C90     C    0.06350   0.52404   0.99980   1.000
    C91     C    0.56356   0.52369   0.99987   1.000
    C92     C    0.12817   0.00023   0.54850   1.000
    C93     C    0.62813   0.99949   0.54840   1.000
    C94     C    0.06350   0.00010   0.52393   1.000
    C95     C    0.56349   0.99973   0.52389   1.000
    C96     C    0.12810   0.45220   0.45196   1.000
    C97     C    0.62805   0.45154   0.45182   1.000
    C98     C    0.06348   0.47642   0.47629   1.000
    C99     C    0.56345   0.47610   0.47623   1.000
    N100    N    0.31222   0.52381   0.19084   1.000
    N101    N    0.81239   0.52280   0.19085   1.000
    N102    N    0.31281   0.66987   0.47748   1.000
    N103    N    0.81256   0.66940   0.47782   1.000
    N104    N    0.31270   0.81052   0.32890   1.000
    N105    N    0.81288   0.80946   0.32900   1.000
    N106    N    0.18723   0.67117   0.19001   1.000
    N107    N    0.68743   0.67044   0.18993   1.000
    N108    N    0.18782   0.80992   0.47700   1.000
    N109    N    0.68759   0.80892   0.47662   1.000
    N110    N    0.18738   0.52322   0.33083   1.000
    N111    N    0.68743   0.52192   0.33028   1.000
    N112    N    0.18763   0.47729   0.80917   1.000
    N113    N    0.68780   0.47628   0.80918   1.000
    N114    N    0.18747   0.33070   0.52221   1.000
    N115    N    0.68721   0.33021   0.52254   1.000
    N116    N    0.18714   0.19062   0.67100   1.000
    N117    N    0.68733   0.18957   0.67109   1.000
    N118    N    0.31259   0.32963   0.81009   1.000
    N119    N    0.81279   0.32892   0.81001   1.000
    N120    N    0.31243   0.19117   0.52341   1.000
    N121    N    0.81220   0.19017   0.52294   1.000
    N122    N    0.31259   0.47818   0.66976   1.000
    N123    N    0.81265   0.47687   0.66919   1.000
loop_
    _geom_bond_atom_site_label_1
    _geom_bond_atom_site_label_2
    _geom_bond_distance
    _geom_bond_site_symmetry_2
    _ccdc_geom_bond_type
    C78    C76       1.44872      .   S
    C78    C28       1.41771      .   S
    C78    C64       1.41503  1_554   S
    C79    C77       1.44828      .   S
    C79    C29       1.41707      .   S
    C79    C65       1.41609  1_554   S
    C76    C30       1.39590      .   S
    C76    C66       1.39543  1_554   S
    C77    C31       1.39606      .   S
    C77    C67       1.39566  1_554   S
    C43    N107      1.17612      .   S
    C43    C89       1.39566  1_554   S
    C42    N106      1.17611      .   S
    C42    C88       1.39556  1_554   S
    C30    N100      1.17585      .   S
    C31    N101      1.17572      .   S
    C41    C28       1.38035      .   S
    C41    H11       1.09027      .   S
    C41    C91       1.41659  1_554   S
    C40    C29       1.37974  1_455   S
    C40    H10       1.09029      .   S
    C40    C90       1.41740  1_554   S
    C28    H4        1.09028      .   S
    C29    H5        1.09020      .   S
    N107   Cd1       2.34646      .   S
    N106   Cd0       2.34831      .   S
    N100   Cd0       2.34619      .   S
    N101   Cd1       2.34798      .   S
    N104   Cd0       2.34654      .   S
    N104   C38       1.17615      .   S
    N105   Cd1       2.34625      .   S
    N105   C39       1.17614      .   S
    N111   Cd1       2.34806      .   S
    N111   C51       1.17604      .   S
    N110   Cd0       2.34703      .   S
    N110   C50       1.17597      .   S
    Cd1    N109      2.34749      .   S
    Cd1    N103      2.34828      .   S
    Cd0    N108      2.34623      .   S
    Cd0    N102      2.34890      .   S
    H9     C37       1.09027      .   S
    H8     C36       1.09025      .   S
    H15    C49       1.09030      .   S
    H14    C48       1.09024      .   S
    C39    C85       1.39535      .   S
    C38    C84       1.39538  1_565   S
    C51    C97       1.39581      .   S
    C50    C96       1.39592      .   S
    H12    C44       1.09027      .   S
    H6     C32       1.09019      .   S
    H13    C45       1.09022      .   S
    H7     C33       1.09033      .   S
    C37    C44       1.37991  1_655   S
    C37    C87       1.41631      .   S
    C36    C45       1.38030      .   S
    C36    C86       1.41642  1_565   S
    C49    C32       1.38028      .   S
    C49    C99       1.41666      .   S
    C48    C33       1.37990  1_455   S
    C48    C98       1.41662      .   S
    C85    C87       1.44863      .   S
    C85    C71       1.39584  1_565   S
    C84    C86       1.44855      .   S
    C84    C70       1.39601      .   S
    C97    C99       1.44850      .   S
    C97    C59       1.39596      .   S
    C96    C98       1.44856      .   S
    C96    C58       1.39577      .   S
    C44    C94       1.41628  1_565   S
    C32    C82       1.41672      .   S
    C45    C95       1.41635      .   S
    C33    C83       1.41658      .   S
    C87    C69       1.41657  1_565   S
    C86    C68       1.41664      .   S
    C99    C57       1.41599      .   S
    C98    C56       1.41669      .   S
    N109   C47       1.17578      .   S
    N108   C46       1.17577      .   S
    N102   C34       1.17602      .   S
    N103   C35       1.17610      .   S
    C58    N114      1.17605      .   S
    C59    N115      1.17597      .   S
    C71    N121      1.17592      .   S
    C70    N120      1.17579      .   S
    C47    C93       1.39579      .   S
    C46    C92       1.39561  1_565   S
    C34    C80       1.39591      .   S
    C35    C81       1.39581      .   S
    N114   Cd2       2.34834      .   S
    N115   Cd3       2.34891      .   S
    N121   Cd3       2.34667      .   S
    N120   Cd2       2.34744      .   S
    C83    C81       1.44858      .   S
    C83    C73       1.41661      .   S
    C82    C80       1.44852      .   S
    C82    C72       1.41666      .   S
    C95    C93       1.44851      .   S
    C95    C61       1.41666  1_565   S
    C94    C92       1.44861      .   S
    C94    C60       1.41658      .   S
    C56    C73       1.37989  1_455   S
    C56    H18       1.09023      .   S
    C57    C72       1.38038      .   S
    C57    H19       1.09083      .   S
    C68    C61       1.38030      .   S
    C68    H24       1.09025      .   S
    C69    C60       1.37992  1_655   S
    C69    H25       1.09024      .   S
    C81    C75       1.39585      .   S
    C80    C74       1.39586      .   S
    C93    C63       1.39568  1_565   S
    C92    C62       1.39559      .   S
    C73    H27       1.09024      .   S
    C72    H26       1.09029      .   S
    C61    H21       1.09025      .   S
    C60    H20       1.09027      .   S
    C75    N123      1.17600      .   S
    C74    N122      1.17599      .   S
    C62    N116      1.17617      .   S
    C63    N117      1.17609      .   S
    Cd3    N123      2.34700      .   S
    Cd3    N117      2.34636      .   S
    Cd3    N113      2.34619      .   S
    Cd3    N119      2.34831      .   S
    Cd2    N122      2.34808      .   S
    Cd2    N116      2.34617      .   S
    Cd2    N112      2.34793      .   S
    Cd2    N118      2.34642      .   S
    N112   C54       1.17585      .   S
    N113   C55       1.17564      .   S
    N119   C67       1.17599      .   S
    N118   C66       1.17614      .   S
    H16    C52       1.09072      .   S
    H17    C53       1.09028      .   S
    H23    C65       1.09020      .   S
    H22    C64       1.09027      .   S
    C52    C65       1.37973  1_455   S
    C52    C90       1.41594      .   S
    C53    C64       1.38035      .   S
    C53    C91       1.41634      .   S
    C55    C89       1.39576      .   S
    C54    C88       1.39595      .   S
    C89    C91       1.44863      .   S
    C88    C90       1.44802      .   S
