# CIF file generated by openbabel 2.4.90, see http://openbabel.sf.net
data_I
_chemical_name_common ''
_cell_length_a 12.811
_cell_length_b 14.28
_cell_length_c 14.19
_cell_angle_alpha 78.507
_cell_angle_beta 63.467
_cell_angle_gamma 63.527
_space_group_name_H-M_alt 'P 1'
_space_group_name_Hall 'P 1'
loop_
    _symmetry_equiv_pos_as_xyz
    x,y,z
loop_
    _atom_site_label
    _atom_site_type_symbol
    _atom_site_fract_x
    _atom_site_fract_y
    _atom_site_fract_z
    _atom_site_occupancy
    Cu0     Cu   0.64576   0.53558   0.99972   1.000
    Cu1     Cu   0.43048   0.50046   0.96329   1.000
    Cu2     Cu   0.89433   0.50032   0.03792   1.000
    Cu3     Cu   0.64580   0.99874   0.53687   1.000
    Cu4     Cu   0.18192   0.99854   0.46233   1.000
    Cu5     Cu   0.89463   0.03709   0.50030   1.000
    Cu6     Cu   0.43034   0.96368   0.50070   1.000
    Cu7     Cu   0.18181   0.46218   0.99905   1.000
