# CIF file generated by openbabel 2.4.90, see http://openbabel.sf.net
data_I
_chemical_name_common ''
_cell_length_a 13.188
_cell_length_b 13.2
_cell_length_c 23.339
_cell_angle_alpha 90.007
_cell_angle_beta 89.999
_cell_angle_gamma 90.45
_space_group_name_H-M_alt 'P 1'
_space_group_name_Hall 'P 1'
loop_
    _symmetry_equiv_pos_as_xyz
    x,y,z
loop_
    _atom_site_label
    _atom_site_type_symbol
    _atom_site_fract_x
    _atom_site_fract_y
    _atom_site_fract_z
    _atom_site_occupancy
    N0      N    0.73708   0.14403   0.31311   1.000
    N1      N    0.28410   0.36551   0.31124   1.000
    N2      N    0.23503   0.64403   0.31300   1.000
    N3      N    0.76499   0.35596   0.81300   1.000
    N4      N    0.71593   0.63447   0.81131   1.000
    N5      N    0.26294   0.85596   0.81310   1.000
    Zr6     Zr   0.73554   0.64371   0.31289   1.000
    O7      O    0.73261   0.83225   0.30950   1.000
    O8      O    0.73990   0.45548   0.31653   1.000
    O9      O    0.72757   0.64689   0.46393   1.000
    O10     O    0.92358   0.64735   0.31540   1.000
    O11     O    0.54700   0.64017   0.31043   1.000
    O12     O    0.73211   0.63504   0.16100   1.000
    Zr13    Zr   0.26448   0.35627   0.81289   1.000
    O14     O    0.27245   0.35310   0.96391   1.000
    O15     O    0.07644   0.35263   0.81539   1.000
    O16     O    0.26741   0.16773   0.80949   1.000
    O17     O    0.45302   0.35981   0.81042   1.000
    O18     O    0.26792   0.36494   0.66098   1.000
    O19     O    0.26012   0.54451   0.81652   1.000
loop_
    _geom_bond_atom_site_label_1
    _geom_bond_atom_site_label_2
    _geom_bond_distance
    _geom_bond_site_symmetry_2
    _ccdc_geom_bond_type
    Zr6    O7        2.49058      .   S
    N0     O7        4.11627  1_545   S
    Zr6    O8        2.48728      .   S
    N0     O8        4.11178      .   S
    Zr6    O9        3.52690      .   S
    N4     O9        8.11046      .   S
    Zr6    O10       2.48070      .   S
    N2     O10       4.10835  1_455   S
    Zr6    O11       2.48721      .   S
    N2     O11       4.11537      .   S
    Zr6    O12       3.54717      .   S
    N4     O12       8.16429  1_556   S
    Zr13   O14       3.52654      .   S
    N1     O14       8.10938  1_554   S
    Zr13   O15       2.48070      .   S
    N3     O15       4.10834  1_655   S
    Zr13   O16       2.49059      .   S
    N5     O16       4.11627  1_565   S
    Zr13   O17       2.48721      .   S
    N3     O17       4.11537      .   S
    Zr13   O18       3.54757      .   S
    N1     O18       8.16533      .   S
    Zr13   O19       2.48727      .   S
    N5     O19       4.11177      .   S
