# CIF file generated by openbabel 2.4.90, see http://openbabel.sf.net
data_I
_chemical_name_common ''
_cell_length_a 13.188
_cell_length_b 13.2
_cell_length_c 23.339
_cell_angle_alpha 90.007
_cell_angle_beta 89.999
_cell_angle_gamma 90.45
_space_group_name_H-M_alt 'P 1'
_space_group_name_Hall 'P 1'
loop_
    _symmetry_equiv_pos_as_xyz
    x,y,z
loop_
    _atom_site_label
    _atom_site_type_symbol
    _atom_site_fract_x
    _atom_site_fract_y
    _atom_site_fract_z
    _atom_site_occupancy
    Zr0     Zr   0.25364   0.36459   0.75037   1.000
    Zr1     Zr   0.27579   0.34729   0.87463   1.000
    Zr2     Zr   0.74638   0.63538   0.25038   1.000
    Zr3     Zr   0.72423   0.65270   0.37464   1.000
    Zr4     Zr   0.46171   0.37386   0.80636   1.000
    Zr5     Zr   0.24718   0.55287   0.82454   1.000
    Zr6     Zr   0.28002   0.15908   0.80178   1.000
    Zr7     Zr   0.06821   0.33926   0.81916   1.000
    Zr8     Zr   0.53831   0.62613   0.30637   1.000
    Zr9     Zr   0.75284   0.44712   0.32454   1.000
    Zr10    Zr   0.72000   0.84090   0.30179   1.000
    Zr11    Zr   0.93181   0.66073   0.31917   1.000
    Zr12    Zr   0.42707   0.36889   0.85728   1.000
    Zr13    Zr   0.40980   0.38265   0.76071   1.000
    Zr14    Zr   0.25783   0.50266   0.87068   1.000
    Zr15    Zr   0.23616   0.51582   0.77453   1.000
    Zr16    Zr   0.28765   0.19574   0.85208   1.000
    Zr17    Zr   0.27494   0.20965   0.75533   1.000
    Zr18    Zr   0.12028   0.33331   0.86492   1.000
    Zr19    Zr   0.10247   0.34214   0.76806   1.000
    Zr20    Zr   0.57295   0.63110   0.35729   1.000
    Zr21    Zr   0.59022   0.61733   0.26072   1.000
    Zr22    Zr   0.74220   0.49734   0.37069   1.000
    Zr23    Zr   0.76386   0.48415   0.27454   1.000
    Zr24    Zr   0.71237   0.80426   0.35209   1.000
    Zr25    Zr   0.72508   0.79032   0.25530   1.000
    Zr26    Zr   0.87973   0.66668   0.36493   1.000
    Zr27    Zr   0.89755   0.65784   0.26807   1.000
    O28     O    0.73573   0.71285   0.25284   1.000
    O29     O    0.66830   0.62636   0.25555   1.000
    O30     O    0.82197   0.64661   0.25923   1.000
    O31     O    0.75512   0.55977   0.26246   1.000
    O32     O    0.72254   0.81561   0.27855   1.000
    O33     O    0.56427   0.62173   0.28355   1.000
    O34     O    0.91468   0.65928   0.29362   1.000
    O35     O    0.75835   0.46564   0.29954   1.000
    O36     O    0.71618   0.82258   0.32694   1.000
    O37     O    0.55563   0.62861   0.33183   1.000
    O38     O    0.90577   0.66370   0.34205   1.000
    O39     O    0.74752   0.47223   0.34762   1.000
    O40     O    0.71830   0.72848   0.36337   1.000
    O41     O    0.64859   0.64190   0.36597   1.000
    O42     O    0.80198   0.65969   0.36978   1.000
    O43     O    0.73321   0.57502   0.37267   1.000
    O44     O    0.26429   0.28712   0.75285   1.000
    O45     O    0.33172   0.37362   0.75554   1.000
    O46     O    0.17806   0.35337   0.75921   1.000
    O47     O    0.24490   0.44021   0.76245   1.000
    O48     O    0.27748   0.18437   0.77856   1.000
    O49     O    0.43576   0.37825   0.78354   1.000
    O50     O    0.08534   0.34070   0.79361   1.000
    O51     O    0.24167   0.53434   0.79953   1.000
    O52     O    0.28384   0.17741   0.82693   1.000
    O53     O    0.44439   0.37137   0.83182   1.000
    O54     O    0.09425   0.33629   0.84204   1.000
    O55     O    0.25251   0.52776   0.84761   1.000
    O56     O    0.28172   0.27151   0.86336   1.000
    O57     O    0.35143   0.35809   0.86596   1.000
    O58     O    0.19803   0.34030   0.86978   1.000
    O59     O    0.26681   0.42498   0.87266   1.000
    O60     O    0.26471   0.35594   0.81250   1.000
    O61     O    0.73531   0.64404   0.31251   1.000
    N62     N    0.73708   0.14403   0.31311   1.000
    O63     O    0.72968   0.02079   0.30610   1.000
    O64     O    0.74427   0.26724   0.32016   1.000
    N65     N    0.28410   0.36551   0.31124   1.000
    O66     O    0.27135   0.37361   0.50907   1.000
    O67     O    0.28042   0.34993   0.11493   1.000
    N68     N    0.23503   0.64403   0.31300   1.000
    O69     O    0.11163   0.65099   0.31790   1.000
    O70     O    0.35846   0.63664   0.30796   1.000
    N71     N    0.76499   0.35596   0.81300   1.000
    O72     O    0.88839   0.34899   0.81790   1.000
    O73     O    0.64156   0.36335   0.80796   1.000
    N74     N    0.71593   0.63447   0.81131   1.000
    O75     O    0.71960   0.65006   0.61497   1.000
    O76     O    0.72868   0.62636   0.00911   1.000
    N77     N    0.26294   0.85596   0.81310   1.000
    O78     O    0.25575   0.73275   0.82015   1.000
    O79     O    0.27034   0.97919   0.80609   1.000
loop_
    _geom_bond_atom_site_label_1
    _geom_bond_atom_site_label_2
    _geom_bond_distance
    _geom_bond_site_symmetry_2
    _ccdc_geom_bond_type
    Zr2    O28       1.03485      .   S
    Zr25   O28       1.03485      .   S
    Zr2    O29       1.04266      .   S
    Zr21   O29       1.04266      .   S
    Zr2    O30       1.02758      .   S
    Zr27   O30       1.02758      .   S
    Zr2    O31       1.04444      .   S
    Zr23   O31       1.04444      .   S
    Zr25   O32       0.63799      .   S
    Zr10   O32       0.63799      .   S
    Zr21   O33       0.63610      .   S
    Zr8    O33       0.63610      .   S
    Zr27   O34       0.63789      .   S
    Zr11   O34       0.63789      .   S
    Zr23   O35       0.63657      .   S
    Zr9    O35       0.63657      .   S
    Zr10   O36       0.63671      .   S
    Zr24   O36       0.63671      .   S
    Zr8    O37       0.63735      .   S
    Zr20   O37       0.63735      .   S
    Zr11   O38       0.63623      .   S
    Zr26   O38       0.63623      .   S
    Zr9    O39       0.63649      .   S
    Zr22   O39       0.63649      .   S
    Zr24   O40       1.03788      .   S
    Zr3    O40       1.03788      .   S
    Zr20   O41       1.02676      .   S
    Zr3    O41       1.02676      .   S
    Zr26   O42       1.03502      .   S
    Zr3    O42       1.03502      .   S
    Zr22   O43       1.03417      .   S
    Zr3    O43       1.03417      .   S
    Zr0    O44       1.03494      .   S
    Zr17   O44       1.03494      .   S
    Zr0    O45       1.04265      .   S
    Zr13   O45       1.04265      .   S
    Zr0    O46       1.02758      .   S
    Zr19   O46       1.02758      .   S
    Zr0    O47       1.04439      .   S
    Zr15   O47       1.04439      .   S
    Zr17   O48       0.63762      .   S
    Zr6    O48       0.63762      .   S
    Zr13   O49       0.63612      .   S
    Zr4    O49       0.63612      .   S
    Zr19   O50       0.63789      .   S
    Zr7    O50       0.63789      .   S
    Zr15   O51       0.63665      .   S
    Zr5    O51       0.63665      .   S
    Zr6    O52       0.63669      .   S
    Zr16   O52       0.63669      .   S
    Zr4    O53       0.63735      .   S
    Zr12   O53       0.63735      .   S
    Zr7    O54       0.63624      .   S
    Zr18   O54       0.63624      .   S
    Zr5    O55       0.63642      .   S
    Zr14   O55       0.63642      .   S
    Zr16   O56       1.03783      .   S
    Zr1    O56       1.03783      .   S
    Zr12   O57       1.02677      .   S
    Zr1    O57       1.02677      .   S
    Zr18   O58       1.03503      .   S
    Zr1    O58       1.03503      .   S
    Zr14   O59       1.03421      .   S
    Zr1    O59       1.03421      .   S
    Zr0    O60       1.46196      .   S
    Zr1    O60       1.46196      .   S
    Zr2    O61       1.46194      .   S
    Zr3    O61       1.46194      .   S
    N62    O63       1.63709      .   S
    Zr10   O63       2.37909  1_565   S
    N62    O64       1.63672      .   S
    Zr9    O64       2.37841      .   S
    N65    O66       4.62141      .   S
    Zr0    O66       5.63784      .   S
    N65    O67       4.58644      .   S
    Zr1    O67       5.60885  1_556   S
    N68    O69       1.63479      .   S
    Zr11   O69       2.37612  1_655   S
    N68    O70       1.63566      .   S
    Zr8    O70       2.37732      .   S
    N71    O72       1.63478      .   S
    Zr7    O72       2.37611  1_455   S
    N71    O73       1.63567      .   S
    Zr4    O73       2.37732      .   S
    N74    O75       4.58716      .   S
    Zr3    O75       5.60952      .   S
    N74    O76       4.62078  1_556   S
    Zr2    O76       5.63715      .   S
    N77    O78       1.63673      .   S
    Zr5    O78       2.37843      .   S
    N77    O79       1.63709      .   S
    Zr6    O79       2.37908  1_545   S
