# CIF file generated by openbabel 2.4.90, see http://openbabel.sf.net
data_I
_chemical_name_common ''
_cell_length_a 13.144
_cell_length_b 13.013
_cell_length_c 23.511
_cell_angle_alpha 90
_cell_angle_beta 90
_cell_angle_gamma 90
_space_group_name_H-M_alt 'P 1'
_space_group_name_Hall 'P 1'
loop_
    _symmetry_equiv_pos_as_xyz
    x,y,z
loop_
    _atom_site_label
    _atom_site_type_symbol
    _atom_site_fract_x
    _atom_site_fract_y
    _atom_site_fract_z
    _atom_site_occupancy
    Zr0     Zr   0.59669   0.00000   0.00000   1.000
    Zr1     Zr   0.40331   0.00000   0.00000   1.000
    Zr2     Zr   0.00000   0.59842   0.49999   1.000
    Zr3     Zr   0.00000   0.40162   0.49999   1.000
    O4      O    0.50000   0.00000   0.00000   1.000
    O5      O    0.00000   0.50002   0.49999   1.000
    N6      N    0.50000   0.50001   0.25083   1.000
    O7      O    0.27728   0.54646   0.36026   1.000
    O8      O    0.54582   0.27755   0.14059   1.000
    O9      O    0.72264   0.54649   0.36029   1.000
    O10     O    0.72272   0.45357   0.36026   1.000
    O11     O    0.45418   0.27755   0.14059   1.000
    O12     O    0.27736   0.45354   0.36029   1.000
    O13     O    0.54582   0.72246   0.14059   1.000
    O14     O    0.45418   0.72246   0.14059   1.000
    N15     N    0.50000   0.50001   0.74914   1.000
    O16     O    0.27736   0.54649   0.63969   1.000
    O17     O    0.45418   0.27755   0.85939   1.000
    O18     O    0.54582   0.72247   0.85939   1.000
    O19     O    0.27728   0.45357   0.63971   1.000
    O20     O    0.45418   0.72247   0.85939   1.000
    O21     O    0.72272   0.54646   0.63971   1.000
    O22     O    0.54582   0.27755   0.85939   1.000
    O23     O    0.72264   0.45354   0.63967   1.000
loop_
    _geom_bond_atom_site_label_1
    _geom_bond_atom_site_label_2
    _geom_bond_distance
    _geom_bond_site_symmetry_2
    _ccdc_geom_bond_type
    Zr0    O4        1.27088      .   S
    Zr1    O4        1.27088      .   S
    Zr2    O5        1.28047      .   S
    Zr3    O5        1.28047      .   S
    N6     O7        3.94395      .   S
    Zr2    O7        4.95298      .   S
    N6     O8        3.93197      .   S
    Zr0    O8        4.94149      .   S
    N6     O9        3.94366      .   S
    Zr2    O9        4.95328  1_455   S
    N6     O10       3.94394      .   S
    Zr3    O10       4.95298  1_455   S
    N6     O11       3.93197      .   S
    Zr1    O11       4.94148      .   S
    N6     O12       3.94365      .   S
    Zr3    O12       4.95324      .   S
    N6     O13       3.93192      .   S
    Zr0    O13       4.94133  1_545   S
    N6     O14       3.93191      .   S
    Zr1    O14       4.94134  1_545   S
    N15    O16       3.94361      .   S
    Zr2    O16       4.95321      .   S
    N15    O17       3.93210      .   S
    Zr1    O17       4.94180  1_554   S
    N15    O18       3.93204      .   S
    Zr0    O18       4.94160  1_544   S
    N15    O19       3.94388      .   S
    Zr3    O19       4.95292      .   S
    N15    O20       3.93204      .   S
    Zr1    O20       4.94160  1_544   S
    N15    O21       3.94389      .   S
    Zr2    O21       4.95293  1_455   S
    N15    O22       3.93211      .   S
    Zr0    O22       4.94179  1_554   S
    N15    O23       3.94387      .   S
    Zr3    O23       4.95292  1_455   S
