# CIF file generated by openbabel 2.4.90, see http://openbabel.sf.net
data_I
_chemical_name_common ''
_cell_length_a 13.144
_cell_length_b 13.013
_cell_length_c 23.511
_cell_angle_alpha 90
_cell_angle_beta 90
_cell_angle_gamma 90
_space_group_name_H-M_alt 'P 1'
_space_group_name_Hall 'P 1'
loop_
    _symmetry_equiv_pos_as_xyz
    x,y,z
loop_
    _atom_site_label
    _atom_site_type_symbol
    _atom_site_fract_x
    _atom_site_fract_y
    _atom_site_fract_z
    _atom_site_occupancy
    C0      C    0.59669   0.00000   0.00000   1.000
    C1      C    0.40331   0.00000   0.00000   1.000
    C2      C    0.00000   0.59842   0.49999   1.000
    C3      C    0.00000   0.40162   0.49999   1.000
    C4      C    0.50000   0.50001   0.74845   1.000
    C5      C    0.50000   0.50001   0.25153   1.000
    C6      C    0.66436   0.62649   0.80189   1.000
    C7      C    0.66328   0.76632   0.87364   1.000
    C8      C    0.33565   0.37353   0.80189   1.000
    C9      C    0.33672   0.23370   0.87364   1.000
    C10     C    0.37427   0.66602   0.30462   1.000
    C11     C    0.23369   0.66492   0.37506   1.000
    C12     C    0.62573   0.33400   0.30462   1.000
    C13     C    0.76632   0.33510   0.37506   1.000
    C14     C    0.33565   0.62649   0.19810   1.000
    C15     C    0.33672   0.76632   0.12634   1.000
    C16     C    0.66435   0.37353   0.19810   1.000
    C17     C    0.66328   0.23370   0.12634   1.000
    C18     C    0.62573   0.66602   0.69536   1.000
    C19     C    0.76632   0.66492   0.62492   1.000
    C20     C    0.37427   0.33401   0.69536   1.000
    C21     C    0.23369   0.33511   0.62492   1.000
    C22     C    0.33565   0.37353   0.19809   1.000
    C23     C    0.33672   0.23370   0.12634   1.000
    C24     C    0.66435   0.62649   0.19809   1.000
    C25     C    0.66328   0.76632   0.12634   1.000
    C26     C    0.62572   0.33401   0.69537   1.000
    C27     C    0.76629   0.33509   0.62492   1.000
    C28     C    0.37428   0.66602   0.69537   1.000
    C29     C    0.23372   0.66493   0.62492   1.000
    C30     C    0.66435   0.37353   0.80189   1.000
    C31     C    0.66328   0.23371   0.87364   1.000
    C32     C    0.33565   0.62649   0.80189   1.000
    C33     C    0.33673   0.76632   0.87364   1.000
    C34     C    0.37428   0.33401   0.30460   1.000
    C35     C    0.23371   0.33509   0.37500   1.000
    C36     C    0.62572   0.66601   0.30461   1.000
    C37     C    0.76629   0.66493   0.37506   1.000
    C38     C    0.59181   0.65670   0.81706   1.000
    C39     C    0.59211   0.73515   0.85736   1.000
    C40     C    0.40819   0.34333   0.81706   1.000
    C41     C    0.40789   0.26487   0.85736   1.000
    C42     C    0.34391   0.59274   0.31952   1.000
    C43     C    0.26504   0.59304   0.35908   1.000
    C44     C    0.65609   0.40728   0.31952   1.000
    C45     C    0.73496   0.40698   0.35908   1.000
    C46     C    0.40819   0.65670   0.18292   1.000
    C47     C    0.40789   0.73515   0.14262   1.000
    C48     C    0.59181   0.34332   0.18292   1.000
    C49     C    0.59211   0.26487   0.14262   1.000
    C50     C    0.65609   0.59274   0.68040   1.000
    C51     C    0.73496   0.59304   0.64090   1.000
    C52     C    0.34392   0.40728   0.68040   1.000
    C53     C    0.26504   0.40699   0.64090   1.000
    C54     C    0.40819   0.34332   0.18292   1.000
    C55     C    0.40789   0.26487   0.14262   1.000
    C56     C    0.59181   0.65670   0.18292   1.000
    C57     C    0.59211   0.73515   0.14262   1.000
    C58     C    0.65608   0.40728   0.68047   1.000
    C59     C    0.73495   0.40698   0.64090   1.000
    C60     C    0.34393   0.59274   0.68047   1.000
    C61     C    0.26506   0.59305   0.64090   1.000
    C62     C    0.59181   0.34333   0.81700   1.000
    C63     C    0.59211   0.26487   0.85736   1.000
    C64     C    0.40819   0.65670   0.81700   1.000
    C65     C    0.40789   0.73515   0.85736   1.000
    C66     C    0.34392   0.40728   0.31950   1.000
    C67     C    0.26506   0.40698   0.35908   1.000
    C68     C    0.65608   0.59274   0.31950   1.000
    C69     C    0.73494   0.59305   0.35908   1.000
    C70     C    0.50000   0.61586   0.79609   1.000
    C71     C    0.50000   0.77467   0.87798   1.000
    C72     C    0.50000   0.85748   0.92197   1.000
    C73     C    0.50000   0.38417   0.79609   1.000
    C74     C    0.50000   0.22536   0.87798   1.000
    C75     C    0.50000   0.14255   0.92197   1.000
    C76     C    0.38496   0.50001   0.29891   1.000
    C77     C    0.22517   0.50001   0.37926   1.000
    C78     C    0.14179   0.49998   0.42240   1.000
    C79     C    0.61504   0.50001   0.29891   1.000
    C80     C    0.77483   0.50002   0.37926   1.000
    C81     C    0.85821   0.50005   0.42244   1.000
    C82     C    0.50000   0.61585   0.20389   1.000
    C83     C    0.50000   0.77467   0.12200   1.000
    C84     C    0.50000   0.85747   0.07801   1.000
    C85     C    0.50000   0.38416   0.20389   1.000
    C86     C    0.50000   0.22535   0.12200   1.000
    C87     C    0.50000   0.14255   0.07801   1.000
    C88     C    0.61504   0.50001   0.70108   1.000
    C89     C    0.77483   0.50001   0.62073   1.000
    C90     C    0.85821   0.49998   0.57755   1.000
    C91     C    0.38496   0.50001   0.70108   1.000
    C92     C    0.22518   0.50002   0.62073   1.000
    C93     C    0.14180   0.50005   0.57755   1.000
    C94     C    0.58658   0.88984   0.93927   1.000
    C95     C    0.41342   0.11019   0.93927   1.000
    C96     C    0.10912   0.58740   0.43940   1.000
    C97     C    0.89088   0.41263   0.43940   1.000
    C98     C    0.41342   0.88983   0.06071   1.000
    C99     C    0.58658   0.11018   0.06071   1.000
    C100    C    0.89088   0.58740   0.56058   1.000
    C101    C    0.10913   0.41263   0.56058   1.000
    C102    C    0.41342   0.11018   0.06071   1.000
    C103    C    0.58658   0.88984   0.06071   1.000
    C104    C    0.89057   0.41252   0.56040   1.000
    C105    C    0.10944   0.58751   0.56047   1.000
    C106    C    0.58658   0.11018   0.93927   1.000
    C107    C    0.41342   0.88984   0.93927   1.000
    C108    C    0.10943   0.41252   0.43951   1.000
    C109    C    0.89057   0.58751   0.43951   1.000
    O110    O    0.40837   0.05509   0.03035   1.000
    O111    O    0.40837   0.94492   0.03035   1.000
    O112    O    0.40837   0.05509   0.96963   1.000
    O113    O    0.40837   0.94492   0.96963   1.000
    O114    O    0.59163   0.94492   0.03035   1.000
    O115    O    0.59163   0.05509   0.03035   1.000
    O116    O    0.59163   0.05509   0.96963   1.000
    O117    O    0.59163   0.94492   0.96963   1.000
    O118    O    0.54329   0.87366   0.06936   1.000
    O119    O    0.45671   0.12636   0.06936   1.000
    O120    O    0.54329   0.12637   0.06936   1.000
    O121    O    0.45671   0.87365   0.06936   1.000
    O122    O    0.50000   0.18395   0.10000   1.000
    O123    O    0.50000   0.81607   0.10000   1.000
    O124    O    0.54605   0.75491   0.13231   1.000
    O125    O    0.45394   0.75491   0.13231   1.000
    O126    O    0.45395   0.24511   0.13231   1.000
    O127    O    0.54606   0.24511   0.13231   1.000
    O128    O    0.62769   0.75073   0.13448   1.000
    O129    O    0.37231   0.75073   0.13448   1.000
    O130    O    0.37231   0.24929   0.13448   1.000
    O131    O    0.62769   0.24928   0.13448   1.000
    O132    O    0.40804   0.30410   0.16277   1.000
    O133    O    0.59196   0.69592   0.16277   1.000
    O134    O    0.59196   0.30410   0.16277   1.000
    O135    O    0.40804   0.69592   0.16277   1.000
    O136    O    0.37192   0.64159   0.19051   1.000
    O137    O    0.45410   0.63628   0.19340   1.000
    O138    O    0.62808   0.35843   0.19051   1.000
    O139    O    0.54591   0.36374   0.19340   1.000
    O140    O    0.37192   0.35843   0.19050   1.000
    O141    O    0.45410   0.36374   0.19340   1.000
    O142    O    0.62808   0.64159   0.19050   1.000
    O143    O    0.54590   0.63627   0.19340   1.000
    O144    O    0.50000   0.55793   0.22771   1.000
    O145    O    0.50000   0.44209   0.22771   1.000
    O146    O    0.55752   0.50001   0.27522   1.000
    O147    O    0.44248   0.50001   0.27522   1.000
    O148    O    0.63556   0.54637   0.30920   1.000
    O149    O    0.63556   0.45364   0.30921   1.000
    O150    O    0.36444   0.45365   0.30920   1.000
    O151    O    0.36444   0.54638   0.30921   1.000
    O152    O    0.35910   0.37064   0.31205   1.000
    O153    O    0.64090   0.62938   0.31205   1.000
    O154    O    0.35909   0.62938   0.31207   1.000
    O155    O    0.64091   0.37064   0.31207   1.000
    O156    O    0.30449   0.40713   0.33929   1.000
    O157    O    0.69551   0.59289   0.33929   1.000
    O158    O    0.30448   0.59289   0.33930   1.000
    O159    O    0.69552   0.40713   0.33930   1.000
    O160    O    0.24938   0.37103   0.36704   1.000
    O161    O    0.24512   0.45349   0.36917   1.000
    O162    O    0.75061   0.62899   0.36707   1.000
    O163    O    0.75488   0.54653   0.36917   1.000
    O164    O    0.24936   0.62898   0.36707   1.000
    O165    O    0.24511   0.54652   0.36917   1.000
    O166    O    0.75064   0.37104   0.36707   1.000
    O167    O    0.75489   0.45350   0.36917   1.000
    O168    O    0.18348   0.49999   0.40083   1.000
    O169    O    0.81652   0.50003   0.40085   1.000
    O170    O    0.12546   0.54369   0.43090   1.000
    O171    O    0.12561   0.45625   0.43095   1.000
    O172    O    0.87454   0.45634   0.43092   1.000
    O173    O    0.87439   0.54378   0.43097   1.000
    O174    O    0.05456   0.59291   0.46969   1.000
    O175    O    0.94544   0.40712   0.46969   1.000
    O176    O    0.94528   0.59296   0.46975   1.000
    O177    O    0.05472   0.40707   0.46975   1.000
    O178    O    0.94528   0.40707   0.53019   1.000
    O179    O    0.05456   0.40713   0.53028   1.000
    O180    O    0.05472   0.59296   0.53023   1.000
    O181    O    0.94544   0.59291   0.53028   1.000
    O182    O    0.87439   0.45625   0.56897   1.000
    O183    O    0.12562   0.54378   0.56901   1.000
    O184    O    0.12546   0.45634   0.56906   1.000
    O185    O    0.87454   0.54369   0.56906   1.000
    O186    O    0.18349   0.50003   0.59914   1.000
    O187    O    0.81652   0.49999   0.59914   1.000
    O188    O    0.75489   0.54652   0.63081   1.000
    O189    O    0.75489   0.45349   0.63081   1.000
    O190    O    0.24511   0.45350   0.63081   1.000
    O191    O    0.24512   0.54653   0.63081   1.000
    O192    O    0.75064   0.62898   0.63291   1.000
    O193    O    0.24936   0.37105   0.63291   1.000
    O194    O    0.75062   0.37104   0.63291   1.000
    O195    O    0.24939   0.62899   0.63291   1.000
    O196    O    0.69552   0.59289   0.66065   1.000
    O197    O    0.30448   0.40714   0.66065   1.000
    O198    O    0.69551   0.40713   0.66068   1.000
    O199    O    0.30449   0.59290   0.66068   1.000
    O200    O    0.35909   0.37065   0.68788   1.000
    O201    O    0.36444   0.45365   0.69074   1.000
    O202    O    0.64091   0.62938   0.68788   1.000
    O203    O    0.63556   0.54638   0.69074   1.000
    O204    O    0.64090   0.37065   0.68792   1.000
    O205    O    0.63556   0.45365   0.69077   1.000
    O206    O    0.35910   0.62938   0.68792   1.000
    O207    O    0.36444   0.54638   0.69077   1.000
    O208    O    0.44248   0.50001   0.72476   1.000
    O209    O    0.55752   0.50001   0.72476   1.000
    O210    O    0.50000   0.55794   0.77227   1.000
    O211    O    0.50000   0.44209   0.77227   1.000
    O212    O    0.45410   0.63628   0.80654   1.000
    O213    O    0.54591   0.63628   0.80657   1.000
    O214    O    0.54590   0.36375   0.80654   1.000
    O215    O    0.45410   0.36375   0.80657   1.000
    O216    O    0.37192   0.35843   0.80947   1.000
    O217    O    0.62808   0.64160   0.80947   1.000
    O218    O    0.62808   0.35843   0.80944   1.000
    O219    O    0.37192   0.64159   0.80944   1.000
    O220    O    0.40804   0.69593   0.83718   1.000
    O221    O    0.59196   0.30410   0.83718   1.000
    O222    O    0.59196   0.69593   0.83721   1.000
    O223    O    0.40804   0.30410   0.83721   1.000
    O224    O    0.37231   0.75074   0.86550   1.000
    O225    O    0.45395   0.75491   0.86767   1.000
    O226    O    0.62769   0.24929   0.86550   1.000
    O227    O    0.54605   0.24511   0.86767   1.000
    O228    O    0.62769   0.75074   0.86550   1.000
    O229    O    0.54606   0.75491   0.86767   1.000
    O230    O    0.37231   0.24929   0.86550   1.000
    O231    O    0.45394   0.24511   0.86767   1.000
    O232    O    0.50000   0.18395   0.89997   1.000
    O233    O    0.50000   0.81607   0.89997   1.000
    O234    O    0.45671   0.87366   0.93062   1.000
    O235    O    0.54329   0.87366   0.93062   1.000
    O236    O    0.45671   0.12637   0.93062   1.000
    O237    O    0.54329   0.12637   0.93062   1.000
    O238    O    0.50000   0.00000   0.00000   1.000
    O239    O    0.00000   0.50002   0.49999   1.000
loop_
    _geom_bond_atom_site_label_1
    _geom_bond_atom_site_label_2
    _geom_bond_distance
    _geom_bond_site_symmetry_2
    _ccdc_geom_bond_type
    C1     O110      1.01375      .   S
    C102   O110      1.01375      .   S
    C1     O111      1.01367  1_545   S
    C98    O111      1.01367      .   S
    C1     O112      1.01395  1_554   S
    C95    O112      1.01395      .   S
    C1     O113      1.01381  1_544   S
    C107   O113      1.01381      .   S
    C0     O114      1.01366  1_545   S
    C103   O114      1.01366      .   S
    C0     O115      1.01377      .   S
    C99    O115      1.01377      .   S
    C0     O116      1.01393  1_554   S
    C106   O116      1.01393      .   S
    C0     O117      1.01382  1_544   S
    C94    O117      1.01382      .   S
    C103   O118      0.63990      .   S
    C84    O118      0.63990      .   S
    C102   O119      0.63990      .   S
    C87    O119      0.63990      .   S
    C99    O120      0.63988      .   S
    C87    O120      0.63988      .   S
    C98    O121      0.63988      .   S
    C84    O121      0.63988      .   S
    C87    O122      0.74679      .   S
    C86    O122      0.74679      .   S
    C84    O123      0.74679      .   S
    C83    O123      0.74679      .   S
    C83    O124      0.70093      .   S
    C57    O124      0.70093      .   S
    C83    O125      0.70093      .   S
    C47    O125      0.70093      .   S
    C86    O126      0.70093      .   S
    C55    O126      0.70093      .   S
    C86    O127      0.70093      .   S
    C49    O127      0.70093      .   S
    C25    O128      0.54452      .   S
    C57    O128      0.54452      .   S
    C15    O129      0.54452      .   S
    C47    O129      0.54452      .   S
    C23    O130      0.54452      .   S
    C55    O130      0.54452      .   S
    C17    O131      0.54452      .   S
    C49    O131      0.54452      .   S
    C55    O132      0.69644      .   S
    C54    O132      0.69644      .   S
    C57    O133      0.69644      .   S
    C56    O133      0.69644      .   S
    C49    O134      0.69644      .   S
    C48    O134      0.69644      .   S
    C47    O135      0.69644      .   S
    C46    O135      0.69644      .   S
    C46    O136      0.54568      .   S
    C14    O136      0.54568      .   S
    C46    O137      0.70388      .   S
    C82    O137      0.70388      .   S
    C48    O138      0.54568      .   S
    C16    O138      0.54568      .   S
    C48    O139      0.70388      .   S
    C85    O139      0.70388      .   S
    C54    O140      0.54565      .   S
    C22    O140      0.54565      .   S
    C54    O141      0.70387      .   S
    C85    O141      0.70387      .   S
    C56    O142      0.54564      .   S
    C24    O142      0.54564      .   S
    C56    O143      0.70387      .   S
    C82    O143      0.70387      .   S
    C82    O144      0.93903      .   S
    C5     O144      0.93903      .   S
    C85    O145      0.93903      .   S
    C5     O145      0.93903      .   S
    C5     O146      0.93906      .   S
    C79    O146      0.93906      .   S
    C5     O147      0.93906      .   S
    C76    O147      0.93906      .   S
    C79    O148      0.70383      .   S
    C68    O148      0.70383      .   S
    C79    O149      0.70390      .   S
    C44    O149      0.70390      .   S
    C76    O150      0.70383      .   S
    C66    O150      0.70383      .   S
    C76    O151      0.70390      .   S
    C42    O151      0.70390      .   S
    C34    O152      0.54568      .   S
    C66    O152      0.54568      .   S
    C36    O153      0.54565      .   S
    C68    O153      0.54565      .   S
    C10    O154      0.54569      .   S
    C42    O154      0.54569      .   S
    C12    O155      0.54569      .   S
    C44    O155      0.54569      .   S
    C66    O156      0.69653      .   S
    C67    O156      0.69653      .   S
    C68    O157      0.69652      .   S
    C69    O157      0.69652      .   S
    C42    O158      0.69640      .   S
    C43    O158      0.69640      .   S
    C44    O159      0.69640      .   S
    C45    O159      0.69640      .   S
    C67    O160      0.54426      .   S
    C35    O160      0.54426      .   S
    C67    O161      0.70097      .   S
    C77    O161      0.70097      .   S
    C69    O162      0.54450      .   S
    C37    O162      0.54450      .   S
    C69    O163      0.70097      .   S
    C80    O163      0.70097      .   S
    C43    O164      0.54451      .   S
    C11    O164      0.54451      .   S
    C43    O165      0.70094      .   S
    C77    O165      0.70094      .   S
    C45    O166      0.54451      .   S
    C13    O166      0.54451      .   S
    C45    O167      0.70094      .   S
    C80    O167      0.70094      .   S
    C77    O168      0.74663      .   S
    C78    O168      0.74663      .   S
    C80    O169      0.74695      .   S
    C81    O169      0.74695      .   S
    C78    O170      0.63997      .   S
    C96    O170      0.63997      .   S
    C78    O171      0.63991      .   S
    C108   O171      0.63991      .   S
    C81    O172      0.63982      .   S
    C97    O172      0.63982      .   S
    C81    O173      0.63977      .   S
    C109   O173      0.63977      .   S
    C96    O174      1.01329      .   S
    C2     O174      1.01329      .   S
    C97    O175      1.01329      .   S
    C3     O175      1.01329  1_455   S
    C109   O176      1.01380      .   S
    C2     O176      1.01380  1_455   S
    C108   O177      1.01378      .   S
    C3     O177      1.01378      .   S
    C3     O178      1.01321  1_455   S
    C104   O178      1.01321      .   S
    C3     O179      1.01330      .   S
    C101   O179      1.01330      .   S
    C2     O180      1.01379      .   S
    C105   O180      1.01379      .   S
    C2     O181      1.01330  1_455   S
    C100   O181      1.01330      .   S
    C104   O182      0.64006      .   S
    C90    O182      0.64006      .   S
    C105   O183      0.63980      .   S
    C93    O183      0.63980      .   S
    C101   O184      0.63986      .   S
    C93    O184      0.63986      .   S
    C100   O185      0.63986      .   S
    C90    O185      0.63986      .   S
    C93    O186      0.74695      .   S
    C92    O186      0.74695      .   S
    C90    O187      0.74696      .   S
    C89    O187      0.74696      .   S
    C89    O188      0.70090      .   S
    C51    O188      0.70090      .   S
    C89    O189      0.70092      .   S
    C59    O189      0.70092      .   S
    C92    O190      0.70090      .   S
    C53    O190      0.70090      .   S
    C92    O191      0.70092      .   S
    C61    O191      0.70092      .   S
    C19    O192      0.54451      .   S
    C51    O192      0.54451      .   S
    C21    O193      0.54451      .   S
    C53    O193      0.54451      .   S
    C27    O194      0.54451      .   S
    C59    O194      0.54451      .   S
    C29    O195      0.54450      .   S
    C61    O195      0.54450      .   S
    C51    O196      0.69593      .   S
    C50    O196      0.69593      .   S
    C53    O197      0.69593      .   S
    C52    O197      0.69593      .   S
    C59    O198      0.69645      .   S
    C58    O198      0.69645      .   S
    C61    O199      0.69645      .   S
    C60    O199      0.69645      .   S
    C52    O200      0.54591      .   S
    C20    O200      0.54591      .   S
    C52    O201      0.70418      .   S
    C91    O201      0.70418      .   S
    C50    O202      0.54592      .   S
    C18    O202      0.54592      .   S
    C50    O203      0.70418      .   S
    C88    O203      0.70418      .   S
    C58    O204      0.54568      .   S
    C26    O204      0.54568      .   S
    C58    O205      0.70390      .   S
    C88    O205      0.70390      .   S
    C60    O206      0.54568      .   S
    C28    O206      0.54568      .   S
    C60    O207      0.70391      .   S
    C91    O207      0.70391      .   S
    C91    O208      0.93899      .   S
    C4     O208      0.93899      .   S
    C88    O209      0.93899      .   S
    C4     O209      0.93899      .   S
    C4     O210      0.93903      .   S
    C70    O210      0.93903      .   S
    C4     O211      0.93903      .   S
    C73    O211      0.93903      .   S
    C70    O212      0.70362      .   S
    C64    O212      0.70362      .   S
    C70    O213      0.70388      .   S
    C38    O213      0.70388      .   S
    C73    O214      0.70363      .   S
    C62    O214      0.70363      .   S
    C73    O215      0.70388      .   S
    C40    O215      0.70388      .   S
    C8     O216      0.54564      .   S
    C40    O216      0.54564      .   S
    C6     O217      0.54564      .   S
    C38    O217      0.54564      .   S
    C30    O218      0.54541      .   S
    C62    O218      0.54541      .   S
    C32    O219      0.54541      .   S
    C64    O219      0.54541      .   S
    C64    O220      0.69692      .   S
    C65    O220      0.69692      .   S
    C62    O221      0.69692      .   S
    C63    O221      0.69692      .   S
    C38    O222      0.69644      .   S
    C39    O222      0.69644      .   S
    C40    O223      0.69644      .   S
    C41    O223      0.69644      .   S
    C65    O224      0.54452      .   S
    C33    O224      0.54452      .   S
    C65    O225      0.70093      .   S
    C71    O225      0.70093      .   S
    C63    O226      0.54451      .   S
    C31    O226      0.54451      .   S
    C63    O227      0.70093      .   S
    C74    O227      0.70093      .   S
    C39    O228      0.54452      .   S
    C7     O228      0.54452      .   S
    C39    O229      0.70093      .   S
    C71    O229      0.70093      .   S
    C41    O230      0.54452      .   S
    C9     O230      0.54452      .   S
    C41    O231      0.70093      .   S
    C74    O231      0.70093      .   S
    C74    O232      0.74679      .   S
    C75    O232      0.74679      .   S
    C71    O233      0.74680      .   S
    C72    O233      0.74680      .   S
    C72    O234      0.63989      .   S
    C107   O234      0.63989      .   S
    C72    O235      0.63988      .   S
    C94    O235      0.63988      .   S
    C75    O236      0.63988      .   S
    C95    O236      0.63988      .   S
    C75    O237      0.63989      .   S
    C106   O237      0.63989      .   S
    C0     O238      1.27088      .   S
    C1     O238      1.27088      .   S
    C2     O239      1.28047      .   S
    C3     O239      1.28047      .   S
