# CIF file generated by openbabel 2.4.90, see http://openbabel.sf.net
data_I
_chemical_name_common ''
_cell_length_a 9.6555
_cell_length_b 14.871
_cell_length_c 15.415
_cell_angle_alpha 89.996
_cell_angle_beta 89.972
_cell_angle_gamma 89.963
_space_group_name_H-M_alt 'P 1'
_space_group_name_Hall 'P 1'
loop_
    _symmetry_equiv_pos_as_xyz
    x,y,z
loop_
    _atom_site_label
    _atom_site_type_symbol
    _atom_site_fract_x
    _atom_site_fract_y
    _atom_site_fract_z
    _atom_site_occupancy
    H0      H    0.70193   0.69670   0.42918   1.000
    H1      H    0.79796   0.90547   0.21440   1.000
    H2      H    0.92488   0.67911   0.49034   1.000
    H3      H    0.02913   0.81718   0.54972   1.000
    H4      H    0.57583   0.96911   0.19224   1.000
    H5      H    0.47553   0.04508   0.32055   1.000
    H6      H    0.70203   0.30358   0.56889   1.000
    H7      H    0.79808   0.09392   0.78431   1.000
    H8      H    0.92434   0.32097   0.50700   1.000
    H9      H    0.02849   0.18281   0.44736   1.000
    H10     H    0.57569   0.03052   0.80597   1.000
    H11     H    0.47593   0.95525   0.67741   1.000
    H12     H    0.29767   0.80317   0.92894   1.000
    H13     H    0.20174   0.59469   0.71454   1.000
    H14     H    0.07489   0.82094   0.99038   1.000
    H15     H    0.97042   0.68305   0.04999   1.000
    H16     H    0.42369   0.53100   0.69220   1.000
    H17     H    0.52408   0.45497   0.82044   1.000
    H18     H    0.29771   0.19651   0.06897   1.000
    H19     H    0.20146   0.40603   0.28441   1.000
    H20     H    0.07542   0.17908   0.00717   1.000
    H21     H    0.97146   0.31722   0.94739   1.000
    H22     H    0.42385   0.46944   0.30588   1.000
    H23     H    0.52349   0.54476   0.17724   1.000
    C24     C    0.86064   0.73914   0.50057   1.000
    C25     C    0.95366   0.82372   0.49623   1.000
    C26     C    0.64061   0.98436   0.24888   1.000
    C27     C    0.54784   0.98844   0.33077   1.000
    C28     C    0.86019   0.26093   0.49693   1.000
    C29     C    0.95335   0.17633   0.50109   1.000
    C30     C    0.64071   0.01561   0.74929   1.000
    C31     C    0.54816   0.01192   0.66737   1.000
    C32     C    0.13903   0.76086   0.00057   1.000
    C33     C    0.04586   0.67633   0.99646   1.000
    C34     C    0.35897   0.51570   0.74889   1.000
    C35     C    0.45180   0.51161   0.83069   1.000
    C36     C    0.13957   0.23911   0.99710   1.000
    C37     C    0.04643   0.32372   0.00114   1.000
    C38     C    0.35878   0.48437   0.24927   1.000
    C39     C    0.45127   0.48809   0.16727   1.000
    O40     O    0.76066   0.74993   0.43198   1.000
    O41     O    0.87321   0.90244   0.50502   1.000
    O42     O    0.73912   0.91357   0.26525   1.000
    O43     O    0.62937   0.00137   0.40554   1.000
    O44     O    0.76052   0.25019   0.56583   1.000
    O45     O    0.87279   0.09771   0.49257   1.000
    O46     O    0.73923   0.08642   0.73342   1.000
    O47     O    0.62983   0.99919   0.59255   1.000
    O48     O    0.23890   0.74996   0.93190   1.000
    O49     O    0.12622   0.59760   0.00000   1.000
    O50     O    0.26042   0.58646   0.76540   1.000
    O51     O    0.37028   0.49870   0.90553   1.000
    O52     O    0.23917   0.24988   0.06595   1.000
    O53     O    0.12702   0.40233   0.99265   1.000
    O54     O    0.26029   0.41354   0.23347   1.000
    O55     O    0.36954   0.50079   0.09252   1.000
loop_
    _geom_bond_atom_site_label_1
    _geom_bond_atom_site_label_2
    _geom_bond_distance
    _geom_bond_site_symmetry_2
    _ccdc_geom_bond_type
    O49    C33       1.40526  1_554   S
    C32    O48       1.44058  1_554   S
    C32    H14       1.09810  1_554   S
    C32    C33       1.54760  1_554   S
    C37    H21       1.10480  1_454   S
    C37    O53       1.41082  1_554   S
    C37    C36       1.54736  1_554   S
    H20    C36       1.09792  1_554   S
    H15    C33       1.10477  1_654   S
    O52    H18       0.97515      .   S
    O52    C36       1.44153  1_554   S
    O55    C39       1.40958      .   S
    C39    H23       1.10490      .   S
    C39    C38       1.54827      .   S
    H4     C26       1.09799      .   S
    H1     O42       0.97533      .   S
    O54    C38       1.44032      .   S
    O54    H19       0.97535      .   S
    C26    O42       1.44075      .   S
    C26    C27       1.54872      .   S
    C38    H22       1.09807      .   S
    H5     C27       1.10504  1_545   S
    C27    O43       1.40937  1_565   S
    H0     O40       0.97508      .   S
    O40    C24       1.44090      .   S
    H9     C29       1.10504  1_455   S
    H2     C24       1.09807      .   S
    O45    C29       1.41090      .   S
    C25    C24       1.54749      .   S
    C25    O41       1.41090      .   S
    C25    H3        1.10492  1_655   S
    C28    C29       1.54740      .   S
    C28    H8        1.09805      .   S
    C28    O44       1.44180      .   S
    O44    H6        0.97515      .   S
    O47    C31       1.40962  1_565   S
    C31    H11       1.10509  1_545   S
    C31    C30       1.54836      .   S
    H16    C34       1.09799      .   S
    H13    O50       0.97533      .   S
    O46    C30       1.44029      .   S
    O46    H7        0.97534      .   S
    C34    O50       1.44081      .   S
    C34    C35       1.54859      .   S
    C30    H10       1.09809      .   S
    H17    C35       1.10485      .   S
    C35    O51       1.40939      .   S
    H12    O48       0.97507      .   S
