# CIF file generated by openbabel 2.4.90, see http://openbabel.sf.net
data_I
_chemical_name_common ''
_cell_length_a 9.6555
_cell_length_b 14.871
_cell_length_c 15.415
_cell_angle_alpha 89.996
_cell_angle_beta 89.972
_cell_angle_gamma 89.963
_space_group_name_H-M_alt 'P 1'
_space_group_name_Hall 'P 1'
loop_
    _symmetry_equiv_pos_as_xyz
    x,y,z
loop_
    _atom_site_label
    _atom_site_type_symbol
    _atom_site_fract_x
    _atom_site_fract_y
    _atom_site_fract_z
    _atom_site_occupancy
    Cd0     Cd   0.87621   0.99346   0.38199   1.000
    Cd1     Cd   0.75664   0.73127   0.77957   1.000
    Cd2     Cd   0.62512   0.12228   0.49885   1.000
    Cd3     Cd   0.87623   0.00676   0.61588   1.000
    Cd4     Cd   0.75651   0.26856   0.21787   1.000
    Cd5     Cd   0.37396   0.62174   0.99899   1.000
    Cd6     Cd   0.12337   0.50657   0.88221   1.000
    Cd7     Cd   0.24317   0.76869   0.27945   1.000
    Cd8     Cd   0.37459   0.37777   0.99884   1.000
    Cd9     Cd   0.12318   0.49324   0.11606   1.000
    Cd10    Cd   0.24290   0.23155   0.71788   1.000
    Cd11    Cd   0.62563   0.87824   0.49906   1.000
    C12     C    0.79333   0.73626   0.59063   1.000
    C13     C    0.04062   0.82156   0.41199   1.000
    C14     C    0.70968   0.07647   0.23776   1.000
    C15     C    0.45583   0.90335   0.33511   1.000
    C16     C    0.79293   0.26376   0.40683   1.000
    C17     C    0.04085   0.17841   0.58505   1.000
    C18     C    0.70986   0.92345   0.75997   1.000
    C19     C    0.45592   0.09696   0.66324   1.000
    C20     C    0.20644   0.76375   0.09057   1.000
    C21     C    0.95881   0.67837   0.91228   1.000
    C22     C    0.28996   0.42358   0.73782   1.000
    C23     C    0.54385   0.59668   0.83497   1.000
    C24     C    0.20692   0.23627   0.90698   1.000
    C25     C    0.95853   0.32171   0.08501   1.000
    C26     C    0.28969   0.57652   0.25999   1.000
    C27     C    0.54351   0.40305   0.16315   1.000
    O28     O    0.67244   0.76953   0.60068   1.000
    O29     O    0.86638   0.70365   0.65126   1.000
    O30     O    0.04043   0.88792   0.35968   1.000
    O31     O    0.11346   0.75163   0.40053   1.000
    O32     O    0.83032   0.08957   0.26954   1.000
    O33     O    0.63882   0.13654   0.20012   1.000
    O34     O    0.45662   0.85235   0.40145   1.000
    O35     O    0.37911   0.89083   0.26953   1.000
    O36     O    0.67224   0.23041   0.39653   1.000
    O37     O    0.86623   0.29632   0.34629   1.000
    O38     O    0.04092   0.11199   0.63730   1.000
    O39     O    0.11379   0.24825   0.59637   1.000
    O40     O    0.83102   0.91063   0.72877   1.000
    O41     O    0.63845   0.86312   0.79673   1.000
    O42     O    0.45611   0.14784   0.59678   1.000
    O43     O    0.37949   0.10950   0.72903   1.000
    O44     O    0.32734   0.73049   0.10054   1.000
    O45     O    0.13346   0.79641   0.15124   1.000
    O46     O    0.95853   0.61176   0.86026   1.000
    O47     O    0.88636   0.74843   0.90058   1.000
    O48     O    0.16933   0.41045   0.76968   1.000
    O49     O    0.36088   0.36352   0.70016   1.000
    O50     O    0.54302   0.64769   0.90128   1.000
    O51     O    0.62063   0.60917   0.76936   1.000
    O52     O    0.32763   0.26959   0.89659   1.000
    O53     O    0.13361   0.20369   0.84650   1.000
    O54     O    0.95810   0.38818   0.13720   1.000
    O55     O    0.88562   0.25185   0.09631   1.000
    O56     O    0.16849   0.58936   0.22896   1.000
    O57     O    0.36126   0.63683   0.29662   1.000
    O58     O    0.54360   0.35223   0.09666   1.000
    O59     O    0.61968   0.39047   0.22900   1.000
loop_
    _geom_bond_atom_site_label_1
    _geom_bond_atom_site_label_2
    _geom_bond_distance
    _geom_bond_site_symmetry_2
    _ccdc_geom_bond_type
    C25    O55       1.26731      .   S
    C25    O54       1.27453      .   S
    C20    O44       1.27687      .   S
    C20    O45       1.26729      .   S
    O55    Cd4       2.26378      .   S
    O58    C27       1.27348      .   S
    O58    Cd8       2.25451  1_554   S
    O44    Cd5       2.29515  1_554   S
    Cd9    O54       2.25630  1_455   S
    Cd9    O56       2.29459      .   S
    O45    Cd7       2.28028      .   S
    C27    O59       1.26757      .   S
    O33    Cd4       2.28559      .   S
    O33    C14       1.26583      .   S
    Cd4    O59       2.24908      .   S
    Cd4    O37       2.28349      .   S
    O56    C26       1.27876      .   S
    C14    O32       1.27888      .   S
    C26    O57       1.26573      .   S
    O35    Cd7       2.24682      .   S
    O35    C15       1.26744      .   S
    O32    Cd0       2.28990  1_545   S
    Cd7    O57       2.28305      .   S
    Cd7    O31       2.26151      .   S
    C15    O34       1.27301      .   S
    O37    C16       1.26726      .   S
    O30    Cd0       2.25659  1_455   S
    O30    C13       1.27439      .   S
    O36    C16       1.27680      .   S
    O36    Cd2       2.29795      .   S
    O31    C13       1.26740      .   S
    O34    Cd11      2.25356      .   S
    Cd2    O42       2.25456      .   S
    Cd11   O28       2.29587      .   S
    C17    O39       1.26740      .   S
    C17    O38       1.27437      .   S
    C12    O28       1.27682      .   S
    C12    O29       1.26735      .   S
    O39    Cd10      2.26418      .   S
    O42    C19       1.27356      .   S
    Cd3    O38       2.25622  1_655   S
    Cd3    O40       2.29395  1_545   S
    O29    Cd1       2.28064      .   S
    C19    O43       1.26758      .   S
    O49    Cd10      2.28612      .   S
    O49    C22       1.26593      .   S
    Cd10   O43       2.24947      .   S
    Cd10   O53       2.28354      .   S
    O40    C18       1.27876      .   S
    C22    O48       1.27887      .   S
    C18    O41       1.26565      .   S
    O51    Cd1       2.24726      .   S
    O51    C23       1.26742      .   S
    O48    Cd6       2.29085      .   S
    Cd1    O41       2.28329      .   S
    Cd1    O47       2.26195      .   S
    C23    O50       1.27301      .   S
    O53    C24       1.26720      .   S
    O46    Cd6       2.25649  1_655   S
    O46    C21       1.27456      .   S
    O52    C24       1.27680      .   S
    O52    Cd8       2.29774      .   S
    O47    C21       1.26742      .   S
    O50    Cd5       2.25393      .   S
