# CIF file generated by openbabel 2.4.90, see http://openbabel.sf.net
data_I
_chemical_name_common ''
_cell_length_a 9.6555
_cell_length_b 14.871
_cell_length_c 15.415
_cell_angle_alpha 89.996
_cell_angle_beta 89.972
_cell_angle_gamma 89.963
_space_group_name_H-M_alt 'P 1'
_space_group_name_Hall 'P 1'
loop_
    _symmetry_equiv_pos_as_xyz
    x,y,z
loop_
    _atom_site_label
    _atom_site_type_symbol
    _atom_site_fract_x
    _atom_site_fract_y
    _atom_site_fract_z
    _atom_site_occupancy
    Cd0     Cd   0.87621   0.99346   0.38199   1.000
    Cd1     Cd   0.75664   0.73127   0.77957   1.000
    Cd2     Cd   0.62512   0.12228   0.49885   1.000
    Cd3     Cd   0.87623   0.00676   0.61588   1.000
    Cd4     Cd   0.75651   0.26856   0.21787   1.000
    Cd5     Cd   0.37396   0.62174   0.99899   1.000
    Cd6     Cd   0.12337   0.50657   0.88221   1.000
    Cd7     Cd   0.24317   0.76869   0.27945   1.000
    Cd8     Cd   0.37459   0.37777   0.99884   1.000
    Cd9     Cd   0.12318   0.49324   0.11606   1.000
    Cd10    Cd   0.24290   0.23155   0.71788   1.000
    Cd11    Cd   0.62563   0.87824   0.49906   1.000
    C12     C    0.79333   0.73626   0.59063   1.000
    C13     C    0.04062   0.82156   0.41199   1.000
    C14     C    0.70968   0.07647   0.23776   1.000
    C15     C    0.45583   0.90335   0.33511   1.000
    C16     C    0.79293   0.26376   0.40683   1.000
    C17     C    0.04085   0.17841   0.58505   1.000
    C18     C    0.70986   0.92345   0.75997   1.000
    C19     C    0.45592   0.09696   0.66324   1.000
    C20     C    0.20644   0.76375   0.09057   1.000
    C21     C    0.95881   0.67837   0.91228   1.000
    C22     C    0.28996   0.42358   0.73782   1.000
    C23     C    0.54385   0.59668   0.83497   1.000
    C24     C    0.20692   0.23627   0.90698   1.000
    C25     C    0.95853   0.32171   0.08501   1.000
    C26     C    0.28969   0.57652   0.25999   1.000
    C27     C    0.54351   0.40305   0.16315   1.000
    O28     O    0.67244   0.76953   0.60068   1.000
    O29     O    0.86638   0.70365   0.65126   1.000
    O30     O    0.04043   0.88792   0.35968   1.000
    O31     O    0.11346   0.75163   0.40053   1.000
    O32     O    0.83032   0.08957   0.26954   1.000
    O33     O    0.63882   0.13654   0.20012   1.000
    O34     O    0.45662   0.85235   0.40145   1.000
    O35     O    0.37911   0.89083   0.26953   1.000
    O36     O    0.67224   0.23041   0.39653   1.000
    O37     O    0.86623   0.29632   0.34629   1.000
    O38     O    0.04092   0.11199   0.63730   1.000
    O39     O    0.11379   0.24825   0.59637   1.000
    O40     O    0.83102   0.91063   0.72877   1.000
    O41     O    0.63845   0.86312   0.79673   1.000
    O42     O    0.45611   0.14784   0.59678   1.000
    O43     O    0.37949   0.10950   0.72903   1.000
    O44     O    0.32734   0.73049   0.10054   1.000
    O45     O    0.13346   0.79641   0.15124   1.000
    O46     O    0.95853   0.61176   0.86026   1.000
    O47     O    0.88636   0.74843   0.90058   1.000
    O48     O    0.16933   0.41045   0.76968   1.000
    O49     O    0.36088   0.36352   0.70016   1.000
    O50     O    0.54302   0.64769   0.90128   1.000
    O51     O    0.62063   0.60917   0.76936   1.000
    O52     O    0.32763   0.26959   0.89659   1.000
    O53     O    0.13361   0.20369   0.84650   1.000
    O54     O    0.95810   0.38818   0.13720   1.000
    O55     O    0.88562   0.25185   0.09631   1.000
    O56     O    0.16849   0.58936   0.22896   1.000
    O57     O    0.36126   0.63683   0.29662   1.000
    O58     O    0.54360   0.35223   0.09666   1.000
    O59     O    0.61968   0.39047   0.22900   1.000
    Ts60    Ts   0.87521   0.96312   0.42300   1.000
    Ts61    Ts   0.83052   0.96683   0.34308   1.000
    Ts62    Ts   0.79393   0.99610   0.38984   1.000
    Ts63    Ts   0.87507   0.02821   0.41885   1.000
    Ts64    Ts   0.62654   0.08198   0.46775   1.000
    Ts65    Ts   0.67025   0.16492   0.52118   1.000
    Ts66    Ts   0.70768   0.11409   0.49676   1.000
    Ts67    Ts   0.62669   0.08125   0.53008   1.000
    Ts68    Ts   0.87522   0.97198   0.57893   1.000
    Ts69    Ts   0.87509   0.03707   0.57478   1.000
    Ts70    Ts   0.83056   0.03331   0.65506   1.000
    Ts71    Ts   0.79410   0.00423   0.60810   1.000
    Ts72    Ts   0.32894   0.66448   0.97663   1.000
    Ts73    Ts   0.29138   0.61369   0.99933   1.000
    Ts74    Ts   0.37274   0.58073   0.96784   1.000
    Ts75    Ts   0.37249   0.58142   0.03017   1.000
    Ts76    Ts   0.12432   0.53692   0.92148   1.000
    Ts77    Ts   0.16905   0.53320   0.84328   1.000
    Ts78    Ts   0.20567   0.50395   0.88998   1.000
    Ts79    Ts   0.12458   0.47183   0.91903   1.000
    Ts80    Ts   0.37315   0.41808   0.96773   1.000
    Ts81    Ts   0.32945   0.33514   0.02121   1.000
    Ts82    Ts   0.29206   0.38596   0.99677   1.000
    Ts83    Ts   0.37290   0.41877   0.03007   1.000
    Ts84    Ts   0.12420   0.52803   0.07737   1.000
    Ts85    Ts   0.12446   0.46294   0.07492   1.000
    Ts86    Ts   0.16889   0.46668   0.15519   1.000
    Ts87    Ts   0.20530   0.49576   0.10821   1.000
    Ts88    Ts   0.67064   0.83547   0.47670   1.000
    Ts89    Ts   0.70816   0.88630   0.50105   1.000
    Ts90    Ts   0.62688   0.91928   0.46789   1.000
    Ts91    Ts   0.62703   0.91855   0.53022   1.000
    Og92    Og   0.81577   0.73722   0.56061   1.000
    Og93    Og   0.01164   0.82228   0.44007   1.000
    Og94    Og   0.68666   0.04577   0.24147   1.000
    Og95    Og   0.48650   0.93171   0.33367   1.000
    Og96    Og   0.81535   0.26282   0.43687   1.000
    Og97    Og   0.01168   0.17772   0.55706   1.000
    Og98    Og   0.68681   0.95417   0.75641   1.000
    Og99    Og   0.48667   0.06861   0.66462   1.000
    Og100   Og   0.18397   0.76279   0.06057   1.000
    Og101   Og   0.98782   0.67769   0.94034   1.000
    Og102   Og   0.31296   0.45428   0.74151   1.000
    Og103   Og   0.51317   0.56832   0.83355   1.000
    Og104   Og   0.18447   0.23721   0.93702   1.000
    Og105   Og   0.98783   0.32238   0.05705   1.000
    Og106   Og   0.31272   0.54580   0.25642   1.000
    Og107   Og   0.51277   0.43140   0.16452   1.000
loop_
    _geom_bond_atom_site_label_1
    _geom_bond_atom_site_label_2
    _geom_bond_distance
    _geom_bond_site_symmetry_2
    _ccdc_geom_bond_type
    C25    O55       1.26731      .   S
    C25    O54       1.27453      .   S
    C20    O44       1.27687      .   S
    C20    O45       1.26729      .   S
    O55    Cd4       2.26378      .   S
    O58    C27       1.27348      .   S
    O58    Cd8       2.25451  1_554   S
    O44    Cd5       2.29515  1_554   S
    Cd9    O54       2.25630  1_455   S
    Cd9    O56       2.29459      .   S
    O45    Cd7       2.28028      .   S
    C27    O59       1.26757      .   S
    O33    Cd4       2.28559      .   S
    O33    C14       1.26583      .   S
    Cd4    O59       2.24908      .   S
    Cd4    O37       2.28349      .   S
    O56    C26       1.27876      .   S
    C14    O32       1.27888      .   S
    C26    O57       1.26573      .   S
    O35    Cd7       2.24682      .   S
    O35    C15       1.26744      .   S
    O32    Cd0       2.28990  1_545   S
    Cd7    O57       2.28305      .   S
    Cd7    O31       2.26151      .   S
    C15    O34       1.27301      .   S
    O37    C16       1.26726      .   S
    O30    Cd0       2.25659  1_455   S
    O30    C13       1.27439      .   S
    O36    C16       1.27680      .   S
    O36    Cd2       2.29795      .   S
    O31    C13       1.26740      .   S
    O34    Cd11      2.25356      .   S
    Cd2    O42       2.25456      .   S
    Cd11   O28       2.29587      .   S
    C17    O39       1.26740      .   S
    C17    O38       1.27437      .   S
    C12    O28       1.27682      .   S
    C12    O29       1.26735      .   S
    O39    Cd10      2.26418      .   S
    O42    C19       1.27356      .   S
    Cd3    O38       2.25622  1_655   S
    Cd3    O40       2.29395  1_545   S
    O29    Cd1       2.28064      .   S
    C19    O43       1.26758      .   S
    O49    Cd10      2.28612      .   S
    O49    C22       1.26593      .   S
    Cd10   O43       2.24947      .   S
    Cd10   O53       2.28354      .   S
    O40    C18       1.27876      .   S
    C22    O48       1.27887      .   S
    C18    O41       1.26565      .   S
    O51    Cd1       2.24726      .   S
    O51    C23       1.26742      .   S
    O48    Cd6       2.29085      .   S
    Cd1    O41       2.28329      .   S
    Cd1    O47       2.26195      .   S
    C23    O50       1.27301      .   S
    O53    C24       1.26720      .   S
    O46    Cd6       2.25649  1_655   S
    O46    C21       1.27456      .   S
    O52    C24       1.27680      .   S
    O52    Cd8       2.29774      .   S
    O47    C21       1.26742      .   S
    O50    Cd5       2.25393      .   S
    Cd0    Ts60      0.77672      .   S
    Cd0    Ts61      0.84372      .   S
    Cd0    Ts62      0.80449      .   S
    Cd0    Ts63      0.76812  1_565   S
    Cd2    Ts64      0.76766      .   S
    Cd2    Ts65      0.84316      .   S
    Cd2    Ts66      0.80694      .   S
    Cd2    Ts67      0.77733      .   S
    Cd3    Ts68      0.76941  1_545   S
    Cd3    Ts69      0.77765      .   S
    Cd3    Ts70      0.84543      .   S
    Cd3    Ts71      0.80300      .   S
    Cd5    Ts72      0.84355      .   S
    Cd5    Ts73      0.80637      .   S
    Cd5    Ts74      0.77639      .   S
    Cd5    Ts75      0.76851  1_556   S
    Cd6    Ts76      0.75501      .   S
    Cd6    Ts77      0.84355      .   S
    Cd6    Ts78      0.80464      .   S
    Cd6    Ts79      0.76753      .   S
    Cd8    Ts80      0.76773      .   S
    Cd8    Ts81      0.84318  1_556   S
    Cd8    Ts82      0.80661      .   S
    Cd8    Ts83      0.77710  1_556   S
    Cd9    Ts84      0.78947      .   S
    Cd9    Ts85      0.77802      .   S
    Cd9    Ts86      0.84546      .   S
    Cd9    Ts87      0.80289      .   S
    Cd11   Ts88      0.84362      .   S
    Cd11   Ts89      0.80648      .   S
    Cd11   Ts90      0.77691      .   S
    Cd11   Ts91      0.76841      .   S
    C12    Og92      0.51107      .   S
    C13    Og93      0.51548      .   S
    C14    Og94      0.51115      .   S
    C15    Og95      0.51602      .   S
    C16    Og96      0.51136      .   S
    C17    Og97      0.51545      .   S
    C18    Og98      0.51101      .   S
    C19    Og99      0.51589      .   S
    C20    Og100     0.51111      .   S
    C21    Og101     0.51556      .   S
    C22    Og102     0.51111      .   S
    C23    Og103     0.51598      .   S
    C24    Og104     0.51139      .   S
    C25    Og105     0.51545      .   S
    C26    Og106     0.51088      .   S
    C27    Og107     0.51586      .   S
