# CIF file generated by openbabel 2.4.90, see http://openbabel.sf.net
data_I
_chemical_name_common ''
_cell_length_a 9.6555
_cell_length_b 14.871
_cell_length_c 15.415
_cell_angle_alpha 89.996
_cell_angle_beta 89.972
_cell_angle_gamma 89.963
_space_group_name_H-M_alt 'P 1'
_space_group_name_Hall 'P 1'
loop_
    _symmetry_equiv_pos_as_xyz
    x,y,z
loop_
    _atom_site_label
    _atom_site_type_symbol
    _atom_site_fract_x
    _atom_site_fract_y
    _atom_site_fract_z
    _atom_site_occupancy
    C0      C    0.79333   0.73626   0.59063   1.000
    C1      C    0.04062   0.82156   0.41199   1.000
    C2      C    0.70968   0.07647   0.23776   1.000
    C3      C    0.45583   0.90335   0.33511   1.000
    C4      C    0.79293   0.26376   0.40683   1.000
    C5      C    0.04085   0.17841   0.58505   1.000
    C6      C    0.70986   0.92345   0.75997   1.000
    C7      C    0.45592   0.09696   0.66324   1.000
    C8      C    0.20644   0.76375   0.09057   1.000
    C9      C    0.95881   0.67837   0.91228   1.000
    C10     C    0.28996   0.42358   0.73782   1.000
    C11     C    0.54385   0.59668   0.83497   1.000
    C12     C    0.20692   0.23627   0.90698   1.000
    C13     C    0.95853   0.32171   0.08501   1.000
    C14     C    0.28969   0.57652   0.25999   1.000
    C15     C    0.54351   0.40305   0.16315   1.000
    O16     O    0.67244   0.76953   0.60068   1.000
    O17     O    0.86638   0.70365   0.65126   1.000
    O18     O    0.04043   0.88792   0.35968   1.000
    O19     O    0.11346   0.75163   0.40053   1.000
    O20     O    0.83032   0.08957   0.26954   1.000
    O21     O    0.63882   0.13654   0.20012   1.000
    O22     O    0.45662   0.85235   0.40145   1.000
    O23     O    0.37911   0.89083   0.26953   1.000
    O24     O    0.67224   0.23041   0.39653   1.000
    O25     O    0.86623   0.29632   0.34629   1.000
    O26     O    0.04092   0.11199   0.63730   1.000
    O27     O    0.11379   0.24825   0.59637   1.000
    O28     O    0.83102   0.91063   0.72877   1.000
    O29     O    0.63845   0.86312   0.79673   1.000
    O30     O    0.45611   0.14784   0.59678   1.000
    O31     O    0.37949   0.10950   0.72903   1.000
    O32     O    0.32734   0.73049   0.10054   1.000
    O33     O    0.13346   0.79641   0.15124   1.000
    O34     O    0.95853   0.61176   0.86026   1.000
    O35     O    0.88636   0.74843   0.90058   1.000
    O36     O    0.16933   0.41045   0.76968   1.000
    O37     O    0.36088   0.36352   0.70016   1.000
    O38     O    0.54302   0.64769   0.90128   1.000
    O39     O    0.62063   0.60917   0.76936   1.000
    O40     O    0.32763   0.26959   0.89659   1.000
    O41     O    0.13361   0.20369   0.84650   1.000
    O42     O    0.95810   0.38818   0.13720   1.000
    O43     O    0.88562   0.25185   0.09631   1.000
    O44     O    0.16849   0.58936   0.22896   1.000
    O45     O    0.36126   0.63683   0.29662   1.000
    O46     O    0.54360   0.35223   0.09666   1.000
    O47     O    0.61968   0.39047   0.22900   1.000
loop_
    _geom_bond_atom_site_label_1
    _geom_bond_atom_site_label_2
    _geom_bond_distance
    _geom_bond_site_symmetry_2
    _ccdc_geom_bond_type
    C13    O43       1.26731      .   S
    C13    O42       1.27453      .   S
    C8     O32       1.27687      .   S
    C8     O33       1.26729      .   S
    O46    C15       1.27348      .   S
    C15    O47       1.26757      .   S
    O21    C2        1.26583      .   S
    O44    C14       1.27876      .   S
    C2     O20       1.27888      .   S
    C14    O45       1.26573      .   S
    O23    C3        1.26744      .   S
    C3     O22       1.27301      .   S
    O25    C4        1.26726      .   S
    O18    C1        1.27439      .   S
    O24    C4        1.27680      .   S
    O19    C1        1.26740      .   S
    C5     O27       1.26740      .   S
    C5     O26       1.27437      .   S
    C0     O16       1.27682      .   S
    C0     O17       1.26735      .   S
    O30    C7        1.27356      .   S
    C7     O31       1.26758      .   S
    O37    C10       1.26593      .   S
    O28    C6        1.27876      .   S
    C10    O36       1.27887      .   S
    C6     O29       1.26565      .   S
    O39    C11       1.26742      .   S
    C11    O38       1.27301      .   S
    O41    C12       1.26720      .   S
    O34    C9        1.27456      .   S
    O40    C12       1.27680      .   S
    O35    C9        1.26742      .   S
