# CIF file generated by openbabel 2.4.90, see http://openbabel.sf.net
data_I
_chemical_name_common ''
_cell_length_a 9.6555
_cell_length_b 14.871
_cell_length_c 15.415
_cell_angle_alpha 89.996
_cell_angle_beta 89.972
_cell_angle_gamma 89.963
_space_group_name_H-M_alt 'P 1'
_space_group_name_Hall 'P 1'
loop_
    _symmetry_equiv_pos_as_xyz
    x,y,z
loop_
    _atom_site_label
    _atom_site_type_symbol
    _atom_site_fract_x
    _atom_site_fract_y
    _atom_site_fract_z
    _atom_site_occupancy
    C0      C    0.79333   0.73626   0.59063   1.000
    C1      C    0.04062   0.82156   0.41199   1.000
    C2      C    0.70968   0.07647   0.23776   1.000
    C3      C    0.45583   0.90335   0.33511   1.000
    C4      C    0.79293   0.26376   0.40683   1.000
    C5      C    0.04085   0.17841   0.58505   1.000
    C6      C    0.70986   0.92345   0.75997   1.000
    C7      C    0.45592   0.09696   0.66324   1.000
    C8      C    0.20644   0.76375   0.09057   1.000
    C9      C    0.95881   0.67837   0.91228   1.000
    C10     C    0.28996   0.42358   0.73782   1.000
    C11     C    0.54385   0.59668   0.83497   1.000
    C12     C    0.20692   0.23627   0.90698   1.000
    C13     C    0.95853   0.32171   0.08501   1.000
    C14     C    0.28969   0.57652   0.25999   1.000
    C15     C    0.54351   0.40305   0.16315   1.000
