# CIF file generated by openbabel 2.4.90, see http://openbabel.sf.net
data_I
_chemical_name_common ''
_cell_length_a 9.6555
_cell_length_b 14.871
_cell_length_c 15.415
_cell_angle_alpha 89.996
_cell_angle_beta 89.972
_cell_angle_gamma 89.963
_space_group_name_H-M_alt 'P 1'
_space_group_name_Hall 'P 1'
loop_
    _symmetry_equiv_pos_as_xyz
    x,y,z
loop_
    _atom_site_label
    _atom_site_type_symbol
    _atom_site_fract_x
    _atom_site_fract_y
    _atom_site_fract_z
    _atom_site_occupancy
    C0      C    0.62563   0.87824   0.49906   1.000
    C1      C    0.87621   0.99346   0.38199   1.000
    C2      C    0.75664   0.73127   0.77957   1.000
    C3      C    0.62512   0.12228   0.49885   1.000
    C4      C    0.87623   0.00676   0.61588   1.000
    C5      C    0.75651   0.26856   0.21787   1.000
    C6      C    0.37396   0.62174   0.99899   1.000
    C7      C    0.12337   0.50657   0.88221   1.000
    C8      C    0.24317   0.76869   0.27945   1.000
    C9      C    0.37459   0.37777   0.99884   1.000
    C10     C    0.12318   0.49324   0.11606   1.000
    C11     C    0.24290   0.23155   0.71788   1.000
    C12     C    0.70193   0.69670   0.42918   1.000
    C13     C    0.79796   0.90547   0.21440   1.000
    C14     C    0.92488   0.67911   0.49034   1.000
    C15     C    0.02913   0.81718   0.54972   1.000
    C16     C    0.57583   0.96911   0.19224   1.000
    C17     C    0.47553   0.04508   0.32055   1.000
    C18     C    0.70203   0.30358   0.56889   1.000
    C19     C    0.79808   0.09392   0.78431   1.000
    C20     C    0.92434   0.32097   0.50700   1.000
    C21     C    0.02849   0.18281   0.44736   1.000
    C22     C    0.57569   0.03052   0.80597   1.000
    C23     C    0.47593   0.95525   0.67741   1.000
    C24     C    0.29767   0.80317   0.92894   1.000
    C25     C    0.20174   0.59469   0.71454   1.000
    C26     C    0.07489   0.82094   0.99038   1.000
    C27     C    0.97042   0.68305   0.04999   1.000
    C28     C    0.42369   0.53100   0.69220   1.000
    C29     C    0.52408   0.45497   0.82044   1.000
    C30     C    0.29771   0.19651   0.06897   1.000
    C31     C    0.20146   0.40603   0.28441   1.000
    C32     C    0.07542   0.17908   0.00717   1.000
    C33     C    0.97146   0.31722   0.94739   1.000
    C34     C    0.42385   0.46944   0.30588   1.000
    C35     C    0.52349   0.54476   0.17724   1.000
    C36     C    0.79333   0.73626   0.59063   1.000
    C37     C    0.86064   0.73914   0.50057   1.000
    C38     C    0.95366   0.82372   0.49623   1.000
    C39     C    0.04062   0.82156   0.41199   1.000
    C40     C    0.70968   0.07647   0.23776   1.000
    C41     C    0.64061   0.98436   0.24888   1.000
    C42     C    0.54784   0.98844   0.33077   1.000
    C43     C    0.45583   0.90335   0.33511   1.000
    C44     C    0.79293   0.26376   0.40683   1.000
    C45     C    0.86019   0.26093   0.49693   1.000
    C46     C    0.95335   0.17633   0.50109   1.000
    C47     C    0.04085   0.17841   0.58505   1.000
    C48     C    0.70986   0.92345   0.75997   1.000
    C49     C    0.64071   0.01561   0.74929   1.000
    C50     C    0.54816   0.01192   0.66737   1.000
    C51     C    0.45592   0.09696   0.66324   1.000
    C52     C    0.20644   0.76375   0.09057   1.000
    C53     C    0.13903   0.76086   0.00057   1.000
    C54     C    0.04586   0.67633   0.99646   1.000
    C55     C    0.95881   0.67837   0.91228   1.000
    C56     C    0.28996   0.42358   0.73782   1.000
    C57     C    0.35897   0.51570   0.74889   1.000
    C58     C    0.45180   0.51161   0.83069   1.000
    C59     C    0.54385   0.59668   0.83497   1.000
    C60     C    0.20692   0.23627   0.90698   1.000
    C61     C    0.13957   0.23911   0.99710   1.000
    C62     C    0.04643   0.32372   0.00114   1.000
    C63     C    0.95853   0.32171   0.08501   1.000
    C64     C    0.28969   0.57652   0.25999   1.000
    C65     C    0.35878   0.48437   0.24927   1.000
    C66     C    0.45127   0.48809   0.16727   1.000
    C67     C    0.54351   0.40305   0.16315   1.000
    C68     C    0.67244   0.76953   0.60068   1.000
    C69     C    0.86638   0.70365   0.65126   1.000
    C70     C    0.76066   0.74993   0.43198   1.000
    C71     C    0.87321   0.90244   0.50502   1.000
    C72     C    0.04043   0.88792   0.35968   1.000
    C73     C    0.11346   0.75163   0.40053   1.000
    C74     C    0.83032   0.08957   0.26954   1.000
    C75     C    0.63882   0.13654   0.20012   1.000
    C76     C    0.73912   0.91357   0.26525   1.000
    C77     C    0.62937   0.00137   0.40554   1.000
    C78     C    0.45662   0.85235   0.40145   1.000
    C79     C    0.37911   0.89083   0.26953   1.000
    C80     C    0.67224   0.23041   0.39653   1.000
    C81     C    0.86623   0.29632   0.34629   1.000
    C82     C    0.76052   0.25019   0.56583   1.000
    C83     C    0.87279   0.09771   0.49257   1.000
    C84     C    0.04092   0.11199   0.63730   1.000
    C85     C    0.11379   0.24825   0.59637   1.000
    C86     C    0.83102   0.91063   0.72877   1.000
    C87     C    0.63845   0.86312   0.79673   1.000
    C88     C    0.73923   0.08642   0.73342   1.000
    C89     C    0.62983   0.99919   0.59255   1.000
    C90     C    0.45611   0.14784   0.59678   1.000
    C91     C    0.37949   0.10950   0.72903   1.000
    C92     C    0.32734   0.73049   0.10054   1.000
    C93     C    0.13346   0.79641   0.15124   1.000
    C94     C    0.23890   0.74996   0.93190   1.000
    C95     C    0.12622   0.59760   0.00000   1.000
    C96     C    0.95853   0.61176   0.86026   1.000
    C97     C    0.88636   0.74843   0.90058   1.000
    C98     C    0.16933   0.41045   0.76968   1.000
    C99     C    0.36088   0.36352   0.70016   1.000
    C100    C    0.26042   0.58646   0.76540   1.000
    C101    C    0.37028   0.49870   0.90553   1.000
    C102    C    0.54302   0.64769   0.90128   1.000
    C103    C    0.62063   0.60917   0.76936   1.000
    C104    C    0.32763   0.26959   0.89659   1.000
    C105    C    0.13361   0.20369   0.84650   1.000
    C106    C    0.23917   0.24988   0.06595   1.000
    C107    C    0.12702   0.40233   0.99265   1.000
    C108    C    0.95810   0.38818   0.13720   1.000
    C109    C    0.88562   0.25185   0.09631   1.000
    C110    C    0.16849   0.58936   0.22896   1.000
    C111    C    0.36126   0.63683   0.29662   1.000
    C112    C    0.26029   0.41354   0.23347   1.000
    C113    C    0.36954   0.50079   0.09252   1.000
    C114    C    0.54360   0.35223   0.09666   1.000
    C115    C    0.61968   0.39047   0.22900   1.000
    O116    O    0.12479   0.55209   0.94111   1.000
    O117    O    0.08604   0.63697   0.99823   1.000
    O118    O    0.17274   0.76231   0.04557   1.000
    O119    O    0.18897   0.75541   0.96624   1.000
    O120    O    0.10696   0.79090   0.99547   1.000
    O121    O    0.09245   0.71860   0.99852   1.000
    O122    O    0.00248   0.32271   0.04308   1.000
    O123    O    0.00895   0.32047   0.97427   1.000
    O124    O    0.08673   0.36303   0.99690   1.000
    O125    O    0.09300   0.28142   0.99912   1.000
    O126    O    0.10750   0.20909   0.00213   1.000
    O127    O    0.00814   0.67969   0.02322   1.000
    O128    O    0.26844   0.22319   0.06746   1.000
    O129    O    0.18937   0.24449   0.03152   1.000
    O130    O    0.92208   0.28678   0.09066   1.000
    O131    O    0.95832   0.35494   0.11110   1.000
    O132    O    0.26689   0.74712   0.09556   1.000
    O133    O    0.16995   0.78008   0.12090   1.000
    O134    O    0.41040   0.49444   0.12990   1.000
    O135    O    0.37175   0.56126   0.04576   1.000
    O136    O    0.82106   0.26020   0.15709   1.000
    O137    O    0.54356   0.37764   0.12990   1.000
    O138    O    0.45909   0.36500   0.04775   1.000
    O139    O    0.35065   0.67611   0.04977   1.000
    O140    O    0.04064   0.44071   0.12663   1.000
    O141    O    0.14584   0.54130   0.17251   1.000
    O142    O    0.18832   0.78255   0.21534   1.000
    O143    O    0.49739   0.44557   0.16521   1.000
    O144    O    0.58159   0.39676   0.19607   1.000
    O145    O    0.48738   0.51642   0.17226   1.000
    O146    O    0.40503   0.48623   0.20827   1.000
    O147    O    0.60822   0.97674   0.22056   1.000
    O148    O    0.69766   0.20255   0.20900   1.000
    O149    O    0.67425   0.10651   0.21894   1.000
    O150    O    0.76854   0.90952   0.23983   1.000
    O151    O    0.68809   0.32952   0.22343   1.000
    O152    O    0.81137   0.28244   0.28208   1.000
    O153    O    0.22909   0.58294   0.24448   1.000
    O154    O    0.30954   0.44895   0.24137   1.000
    O155    O    0.23088   0.40978   0.25894   1.000
    O156    O    0.67515   0.03042   0.24332   1.000
    O157    O    0.77000   0.08302   0.25365   1.000
    O158    O    0.68987   0.94897   0.25706   1.000
    O159    O    0.59422   0.98640   0.28982   1.000
    O160    O    0.32424   0.53044   0.25463   1.000
    O161    O    0.39132   0.47690   0.27757   1.000
    O162    O    0.32548   0.60668   0.27831   1.000
    O163    O    0.31114   0.82976   0.27449   1.000
    O164    O    0.41747   0.89709   0.30232   1.000
    O165    O    0.85327   0.04152   0.32577   1.000
    O166    O    0.30222   0.70276   0.28804   1.000
    O167    O    0.17832   0.76016   0.33999   1.000
    O168    O    0.51168   0.01676   0.32566   1.000
    O169    O    0.50183   0.94589   0.33294   1.000
    O170    O    0.58860   0.99491   0.36816   1.000
    O171    O    0.45623   0.87785   0.36828   1.000
    O172    O    0.82958   0.28004   0.37656   1.000
    O173    O    0.95832   0.94069   0.37084   1.000
    O174    O    0.04053   0.85474   0.38583   1.000
    O175    O    0.87450   0.04558   0.43728   1.000
    O176    O    0.73258   0.24709   0.40168   1.000
    O177    O    0.64868   0.17634   0.44769   1.000
    O178    O    0.07704   0.78659   0.40626   1.000
    O179    O    0.54113   0.86529   0.45025   1.000
    O180    O    0.62724   0.06182   0.45220   1.000
    O181    O    0.82656   0.26235   0.45188   1.000
    O182    O    0.99714   0.82264   0.45411   1.000
    O183    O    0.73130   0.72331   0.43058   1.000
    O184    O    0.81065   0.74454   0.46628   1.000
    O185    O    0.99092   0.17957   0.47422   1.000
    O186    O    0.89276   0.70912   0.49545   1.000
    O187    O    0.91307   0.13702   0.49683   1.000
    O188    O    0.90715   0.78143   0.49840   1.000
    O189    O    0.91343   0.86308   0.50063   1.000
    O190    O    0.99139   0.82045   0.52298   1.000
    O191    O    0.90677   0.21863   0.49901   1.000
    O192    O    0.89226   0.29095   0.50197   1.000
    O193    O    0.81036   0.25556   0.53138   1.000
    O194    O    0.54061   0.13506   0.54782   1.000
    O195    O    0.62773   0.93871   0.54580   1.000
    O196    O    0.64904   0.82388   0.54987   1.000
    O197    O    0.82698   0.73770   0.54560   1.000
    O198    O    0.99710   0.17737   0.54307   1.000
    O199    O    0.87472   0.95460   0.56045   1.000
    O200    O    0.73128   0.27689   0.56736   1.000
    O201    O    0.07732   0.21333   0.59071   1.000
    O202    O    0.04088   0.14520   0.61118   1.000
    O203    O    0.73289   0.75289   0.59566   1.000
    O204    O    0.82986   0.71995   0.62094   1.000
    O205    O    0.58900   0.00555   0.62996   1.000
    O206    O    0.17834   0.23990   0.65713   1.000
    O207    O    0.45601   0.12240   0.63001   1.000
    O208    O    0.95858   0.05938   0.62659   1.000
    O209    O    0.85363   0.95869   0.67232   1.000
    O210    O    0.81151   0.71746   0.71541   1.000
    O211    O    0.50204   0.05444   0.66531   1.000
    O212    O    0.41771   0.10323   0.69613   1.000
    O213    O    0.51205   0.98359   0.67239   1.000
    O214    O    0.59444   0.01377   0.70833   1.000
    O215    O    0.39133   0.52335   0.72054   1.000
    O216    O    0.30189   0.29754   0.70902   1.000
    O217    O    0.32542   0.39355   0.71899   1.000
    O218    O    0.23108   0.59057   0.73997   1.000
    O219    O    0.31120   0.17053   0.72345   1.000
    O220    O    0.18825   0.21762   0.78219   1.000
    O221    O    0.77044   0.91704   0.74437   1.000
    O222    O    0.68997   0.05102   0.74136   1.000
    O223    O    0.76865   0.09017   0.75887   1.000
    O224    O    0.32446   0.46964   0.74336   1.000
    O225    O    0.22964   0.41702   0.75375   1.000
    O226    O    0.30970   0.55108   0.75715   1.000
    O227    O    0.40538   0.51365   0.78979   1.000
    O228    O    0.67529   0.96953   0.75463   1.000
    O229    O    0.60820   0.02307   0.77763   1.000
    O230    O    0.67416   0.89329   0.77835   1.000
    O231    O    0.68863   0.67022   0.77447   1.000
    O232    O    0.58224   0.60292   0.80217   1.000
    O233    O    0.14635   0.45851   0.82595   1.000
    O234    O    0.69755   0.79720   0.78815   1.000
    O235    O    0.82150   0.73985   0.84008   1.000
    O236    O    0.48794   0.48329   0.82557   1.000
    O237    O    0.49782   0.55414   0.83283   1.000
    O238    O    0.41104   0.50516   0.86811   1.000
    O239    O    0.54344   0.62218   0.86813   1.000
    O240    O    0.17026   0.21998   0.87674   1.000
    O241    O    0.04095   0.55917   0.87124   1.000
    O242    O    0.95867   0.64506   0.88627   1.000
    O243    O    0.12519   0.45445   0.93743   1.000
    O244    O    0.26727   0.25293   0.90178   1.000
    O245    O    0.35111   0.32368   0.94772   1.000
    O246    O    0.92258   0.71340   0.90643   1.000
    O247    O    0.45849   0.63471   0.95014   1.000
    O248    O    0.37243   0.43824   0.95218   1.000
    O249    O    0.17325   0.23769   0.95204   1.000
    O250    O    0.00233   0.67735   0.95437   1.000
    O251    O    0.26828   0.77657   0.93042   1.000
    O252    O    0.69315   0.81408   0.46552   1.000
    O253    O    0.74942   0.89034   0.50204   1.000
    O254    O    0.87471   0.94795   0.44351   1.000
    O255    O    0.80767   0.95352   0.32362   1.000
    O256    O    0.62750   0.93980   0.45230   1.000
    O257    O    0.75279   0.99742   0.39377   1.000
    O258    O    0.69282   0.18623   0.53234   1.000
    O259    O    0.74896   0.10999   0.49571   1.000
    O260    O    0.87451   0.05223   0.55423   1.000
    O261    O    0.80773   0.04659   0.67465   1.000
    O262    O    0.62748   0.06073   0.54570   1.000
    O263    O    0.75303   0.00297   0.60421   1.000
    O264    O    0.30643   0.68585   0.96545   1.000
    O265    O    0.25009   0.60967   0.99949   1.000
    O266    O    0.12470   0.54542   0.05803   1.000
    O267    O    0.19190   0.54652   0.82381   1.000
    O268    O    0.37212   0.56022   0.95226   1.000
    O269    O    0.24682   0.50264   0.89387   1.000
    O270    O    0.30688   0.31382   0.03239   1.000
    O271    O    0.25080   0.39005   0.99574   1.000
    O272    O    0.12510   0.44779   0.05435   1.000
    O273    O    0.19174   0.45339   0.17476   1.000
    O274    O    0.37206   0.43928   0.04568   1.000
    O275    O    0.24636   0.49701   0.10429   1.000
loop_
    _geom_bond_atom_site_label_1
    _geom_bond_atom_site_label_2
    _geom_bond_distance
    _geom_bond_site_symmetry_2
    _ccdc_geom_bond_type
    C95    O116      1.13252  1_554   S
    C7     O116      1.13252      .   S
    C95    O117      0.70263  1_554   S
    C54    O117      0.70263      .   S
    C53    O118      0.76667      .   S
    C52    O118      0.76667      .   S
    C53    O119      0.72029  1_554   S
    C94    O119      0.72029      .   S
    C53    O120      0.54905  1_554   S
    C26    O120      0.54905      .   S
    C53    O121      0.77380  1_554   S
    C54    O121      0.77380      .   S
    C62    O122      0.77318      .   S
    C63    O122      0.77318  1_655   S
    C62    O123      0.55240  1_554   S
    C33    O123      0.55240  1_655   S
    C62    O124      0.70541  1_554   S
    C107   O124      0.70541      .   S
    C62    O125      0.77368  1_554   S
    C61    O125      0.77368      .   S
    C32    O126      0.54896      .   S
    C61    O126      0.54896  1_556   S
    C27    O127      0.55238  1_655   S
    C54    O127      0.55238  1_556   S
    C106   O128      0.48758      .   S
    C30    O128      0.48758      .   S
    C106   O129      0.72076      .   S
    C61    O129      0.72076  1_556   S
    C63    O130      0.63365      .   S
    C109   O130      0.63365      .   S
    C63    O131      0.63727      .   S
    C108   O131      0.63727      .   S
    C52    O132      0.63844      .   S
    C92    O132      0.63844      .   S
    C52    O133      0.63364      .   S
    C93    O133      0.63364      .   S
    C113   O134      0.70479      .   S
    C66    O134      0.70479      .   S
    C113   O135      1.15276      .   S
    C6     O135      1.15276  1_556   S
    C109   O136      1.13189      .   S
    C5     O136      1.13189      .   S
    C114   O137      0.63674      .   S
    C67    O137      0.63674      .   S
    C114   O138      1.12725      .   S
    C9     O138      1.12725  1_556   S
    C92    O139      1.14758      .   S
    C6     O139      1.14758  1_556   S
    C10    O140      1.12815      .   S
    C108   O140      1.12815  1_655   S
    C10    O141      1.14730      .   S
    C110   O141      1.14730      .   S
    C93    O142      1.14014      .   S
    C8     O142      1.14014      .   S
    C67    O143      0.77379      .   S
    C66    O143      0.77379      .   S
    C67    O144      0.63378      .   S
    C115   O144      0.63378      .   S
    C66    O145      0.55245      .   S
    C35    O145      0.55245      .   S
    C66    O146      0.77414      .   S
    C65    O146      0.77414      .   S
    C16    O147      0.54899      .   S
    C41    O147      0.54899      .   S
    C75    O148      1.14279      .   S
    C5     O148      1.14279      .   S
    C75    O149      0.63291      .   S
    C40    O149      0.63291      .   S
    C13    O150      0.48767      .   S
    C76    O150      0.48767      .   S
    C5     O151      1.12454      .   S
    C115   O151      1.12454      .   S
    C5     O152      1.14174      .   S
    C81    O152      1.14174      .   S
    C110   O153      0.63938      .   S
    C64    O153      0.63938      .   S
    C112   O154      0.72016      .   S
    C65    O154      0.72016      .   S
    C112   O155      0.48768      .   S
    C31    O155      0.48768      .   S
    C40    O156      0.76672      .   S
    C41    O156      0.76672  1_565   S
    C40    O157      0.63944      .   S
    C74    O157      0.63944      .   S
    C41    O158      0.72038      .   S
    C76    O158      0.72038      .   S
    C41    O159      0.77436      .   S
    C42    O159      0.77436      .   S
    C65    O160      0.76632      .   S
    C64    O160      0.76632      .   S
    C65    O161      0.54903      .   S
    C34    O161      0.54903      .   S
    C64    O162      0.63287      .   S
    C111   O162      0.63287      .   S
    C79    O163      1.12341      .   S
    C8     O163      1.12341      .   S
    C79    O164      0.63372      .   S
    C43    O164      0.63372      .   S
    C74    O165      1.14495      .   S
    C1     O165      1.14495  1_565   S
    C8     O166      1.14152      .   S
    C111   O166      1.14152      .   S
    C8     O167      1.13076      .   S
    C73    O167      1.13076      .   S
    C17    O168      0.55252      .   S
    C42    O168      0.55252  1_565   S
    C42    O169      0.77403      .   S
    C43    O169      0.77403      .   S
    C42    O170      0.70469      .   S
    C77    O170      0.70469  1_545   S
    C43    O171      0.63651      .   S
    C78    O171      0.63651      .   S
    C81    O172      0.63363      .   S
    C44    O172      0.63363      .   S
    C72    O173      1.12830  1_455   S
    C1     O173      1.12830      .   S
    C72    O174      0.63719      .   S
    C39    O174      0.63719      .   S
    C1     O175      1.15219  1_565   S
    C83    O175      1.15219      .   S
    C80    O176      0.63840      .   S
    C44    O176      0.63840      .   S
    C80    O177      1.14898      .   S
    C3     O177      1.14898      .   S
    C73    O178      0.63370      .   S
    C39    O178      0.63370      .   S
    C78    O179      1.12678      .   S
    C0     O179      1.12678      .   S
    C77    O180      1.15150      .   S
    C3     O180      1.15150      .   S
    C44    O181      0.76704      .   S
    C45    O181      0.76704      .   S
    C39    O182      0.77322  1_455   S
    C38    O182      0.77322      .   S
    C12    O183      0.48754      .   S
    C70    O183      0.48754      .   S
    C70    O184      0.72045      .   S
    C37    O184      0.72045      .   S
    C21    O185      0.55252  1_455   S
    C46    O185      0.55252      .   S
    C14    O186      0.54903      .   S
    C37    O186      0.54903      .   S
    C83    O187      0.70545      .   S
    C46    O187      0.70545      .   S
    C38    O188      0.77374      .   S
    C37    O188      0.77374      .   S
    C38    O189      0.70545      .   S
    C71    O189      0.70545      .   S
    C38    O190      0.55246      .   S
    C15    O190      0.55246  1_455   S
    C45    O191      0.77370      .   S
    C46    O191      0.77370      .   S
    C45    O192      0.54902      .   S
    C20    O192      0.54902      .   S
    C45    O193      0.72090      .   S
    C82    O193      0.72090      .   S
    C3     O194      1.12728      .   S
    C90    O194      1.12728      .   S
    C0     O195      1.15262      .   S
    C89    O195      1.15262      .   S
    C0     O196      1.14793      .   S
    C68    O196      1.14793      .   S
    C37    O197      0.76661      .   S
    C36    O197      0.76661      .   S
    C46    O198      0.77317      .   S
    C47    O198      0.77317  1_455   S
    C71    O199      1.15412      .   S
    C4     O199      1.15412  1_545   S
    C82    O200      0.48758      .   S
    C18    O200      0.48758      .   S
    C47    O201      0.63370      .   S
    C85    O201      0.63370      .   S
    C47    O202      0.63719      .   S
    C84    O202      0.63719      .   S
    C36    O203      0.63841      .   S
    C68    O203      0.63841      .   S
    C36    O204      0.63367      .   S
    C69    O204      0.63367      .   S
    C89    O205      0.70481  1_565   S
    C50    O205      0.70481      .   S
    C85    O206      1.13209      .   S
    C11    O206      1.13209      .   S
    C90    O207      0.63678      .   S
    C51    O207      0.63678      .   S
    C4     O208      1.12811      .   S
    C84    O208      1.12811  1_455   S
    C4     O209      1.14697  1_545   S
    C86    O209      1.14697      .   S
    C69    O210      1.14032      .   S
    C2     O210      1.14032      .   S
    C51    O211      0.77383      .   S
    C50    O211      0.77383      .   S
    C51    O212      0.63379      .   S
    C91    O212      0.63379      .   S
    C50    O213      0.55255  1_545   S
    C23    O213      0.55255      .   S
    C50    O214      0.77418      .   S
    C49    O214      0.77418      .   S
    C28    O215      0.54900      .   S
    C57    O215      0.54900      .   S
    C99    O216      1.14306      .   S
    C11    O216      1.14306      .   S
    C99    O217      0.63296      .   S
    C56    O217      0.63296      .   S
    C25    O218      0.48767      .   S
    C100   O218      0.48767      .   S
    C11    O219      1.12474      .   S
    C91    O219      1.12474      .   S
    C11    O220      1.14177      .   S
    C105   O220      1.14177      .   S
    C86    O221      0.63938      .   S
    C48    O221      0.63938      .   S
    C88    O222      0.72015      .   S
    C49    O222      0.72015      .   S
    C88    O223      0.48767      .   S
    C19    O223      0.48767      .   S
    C56    O224      0.76666      .   S
    C57    O224      0.76666      .   S
    C56    O225      0.63943      .   S
    C98    O225      0.63943      .   S
    C57    O226      0.72040      .   S
    C100   O226      0.72040      .   S
    C57    O227      0.77430      .   S
    C58    O227      0.77430      .   S
    C49    O228      0.76651  1_545   S
    C48    O228      0.76651      .   S
    C49    O229      0.54905      .   S
    C22    O229      0.54905      .   S
    C48    O230      0.63282      .   S
    C87    O230      0.63282      .   S
    C103   O231      1.12363      .   S
    C2     O231      1.12363      .   S
    C103   O232      0.63371      .   S
    C59    O232      0.63371      .   S
    C98    O233      1.14542      .   S
    C7     O233      1.14542      .   S
    C2     O234      1.14164      .   S
    C87    O234      1.14164      .   S
    C2     O235      1.13098      .   S
    C97    O235      1.13098      .   S
    C29    O236      0.55242      .   S
    C58    O236      0.55242      .   S
    C58    O237      0.77397      .   S
    C59    O237      0.77397      .   S
    C58    O238      0.70470      .   S
    C101   O238      0.70470      .   S
    C59    O239      0.63651      .   S
    C102   O239      0.63651      .   S
    C105   O240      0.63360      .   S
    C60    O240      0.63360      .   S
    C96    O241      1.12824  1_655   S
    C7     O241      1.12824      .   S
    C96    O242      0.63728      .   S
    C55    O242      0.63728      .   S
    C7     O243      1.15130      .   S
    C107   O243      1.15130      .   S
    C104   O244      0.63840      .   S
    C60    O244      0.63840      .   S
    C104   O245      1.14887      .   S
    C9     O245      1.14887      .   S
    C97    O246      0.63371      .   S
    C55    O246      0.63371      .   S
    C102   O247      1.12697      .   S
    C6     O247      1.12697      .   S
    C101   O248      1.15159      .   S
    C9     O248      1.15159      .   S
    C60    O249      0.76708      .   S
    C61    O249      0.76708      .   S
    C55    O250      0.77335  1_655   S
    C54    O250      0.77335      .   S
    C24    O251      0.48754      .   S
    C94    O251      0.48754      .   S
    C70    O252      1.26543      .   S
    C0     O252      1.26543      .   S
    C71    O253      1.20973      .   S
    C0     O253      1.20973      .   S
    C71    O254      1.16507      .   S
    C1     O254      1.16507      .   S
    C76    O255      1.26557      .   S
    C1     O255      1.26557      .   S
    C77    O256      1.16536  1_545   S
    C0     O256      1.16536      .   S
    C77    O257      1.20674  1_545   S
    C1     O257      1.20674      .   S
    C82    O258      1.26473      .   S
    C3     O258      1.26473      .   S
    C83    O259      1.21041      .   S
    C3     O259      1.21041      .   S
    C83    O260      1.16647      .   S
    C4     O260      1.16647      .   S
    C88    O261      1.26815      .   S
    C4     O261      1.26815      .   S
    C89    O262      1.16599  1_565   S
    C3     O262      1.16599      .   S
    C89    O263      1.20450  1_565   S
    C4     O263      1.20450      .   S
    C94    O264      1.26533      .   S
    C6     O264      1.26533      .   S
    C95    O265      1.20956  1_554   S
    C6     O265      1.20956      .   S
    C95    O266      1.18421      .   S
    C10    O266      1.18421      .   S
    C100   O267      1.26532      .   S
    C7     O267      1.26532      .   S
    C101   O268      1.16458      .   S
    C6     O268      1.16458      .   S
    C101   O269      1.20696      .   S
    C7     O269      1.20696      .   S
    C106   O270      1.26477      .   S
    C9     O270      1.26477  1_556   S
    C107   O271      1.20991      .   S
    C9     O271      1.20991      .   S
    C107   O272      1.16704  1_556   S
    C10    O272      1.16704      .   S
    C112   O273      1.26819      .   S
    C10    O273      1.26819      .   S
    C113   O274      1.16565      .   S
    C9     O274      1.16565  1_556   S
    C113   O275      1.20433      .   S
    C10    O275      1.20433      .   S
