# CIF file generated by openbabel 2.4.90, see http://openbabel.sf.net
data_I
_chemical_name_common ''
_cell_length_a 9.6555
_cell_length_b 14.871
_cell_length_c 15.415
_cell_angle_alpha 89.996
_cell_angle_beta 89.972
_cell_angle_gamma 89.963
_space_group_name_H-M_alt 'P 1'
_space_group_name_Hall 'P 1'
loop_
    _symmetry_equiv_pos_as_xyz
    x,y,z
loop_
    _atom_site_label
    _atom_site_type_symbol
    _atom_site_fract_x
    _atom_site_fract_y
    _atom_site_fract_z
    _atom_site_occupancy
    Zr0     Zr   0.62563   0.87824   0.49906   1.000
    Zr1     Zr   0.87621   0.99346   0.38199   1.000
    Zr2     Zr   0.75664   0.73127   0.77957   1.000
    Zr3     Zr   0.62512   0.12228   0.49885   1.000
    Zr4     Zr   0.87623   0.00676   0.61588   1.000
    Zr5     Zr   0.75651   0.26856   0.21787   1.000
    Zr6     Zr   0.37396   0.62174   0.99899   1.000
    Zr7     Zr   0.12337   0.50657   0.88221   1.000
    Zr8     Zr   0.24317   0.76869   0.27945   1.000
    Zr9     Zr   0.37459   0.37777   0.99884   1.000
    Zr10    Zr   0.12318   0.49324   0.11606   1.000
    Zr11    Zr   0.24290   0.23155   0.71788   1.000
    Zr12    Zr   0.79333   0.73626   0.59063   1.000
    Zr13    Zr   0.04062   0.82156   0.41199   1.000
    Zr14    Zr   0.70968   0.07647   0.23776   1.000
    Zr15    Zr   0.45583   0.90335   0.33511   1.000
    Zr16    Zr   0.79293   0.26376   0.40683   1.000
    Zr17    Zr   0.04085   0.17841   0.58505   1.000
    Zr18    Zr   0.70986   0.92345   0.75997   1.000
    Zr19    Zr   0.45592   0.09696   0.66324   1.000
    Zr20    Zr   0.20644   0.76375   0.09057   1.000
    Zr21    Zr   0.95881   0.67837   0.91228   1.000
    Zr22    Zr   0.28996   0.42358   0.73782   1.000
    Zr23    Zr   0.54385   0.59668   0.83497   1.000
    Zr24    Zr   0.20692   0.23627   0.90698   1.000
    Zr25    Zr   0.95853   0.32171   0.08501   1.000
    Zr26    Zr   0.28969   0.57652   0.25999   1.000
    Zr27    Zr   0.54351   0.40305   0.16315   1.000
    Zr28    Zr   0.67244   0.76953   0.60068   1.000
    Zr29    Zr   0.86638   0.70365   0.65126   1.000
    Zr30    Zr   0.04043   0.88792   0.35968   1.000
    Zr31    Zr   0.11346   0.75163   0.40053   1.000
    Zr32    Zr   0.83032   0.08957   0.26954   1.000
    Zr33    Zr   0.63882   0.13654   0.20012   1.000
    Zr34    Zr   0.45662   0.85235   0.40145   1.000
    Zr35    Zr   0.37911   0.89083   0.26953   1.000
    Zr36    Zr   0.67224   0.23041   0.39653   1.000
    Zr37    Zr   0.86623   0.29632   0.34629   1.000
    Zr38    Zr   0.04092   0.11199   0.63730   1.000
    Zr39    Zr   0.11379   0.24825   0.59637   1.000
    Zr40    Zr   0.83102   0.91063   0.72877   1.000
    Zr41    Zr   0.63845   0.86312   0.79673   1.000
    Zr42    Zr   0.45611   0.14784   0.59678   1.000
    Zr43    Zr   0.37949   0.10950   0.72903   1.000
    Zr44    Zr   0.32734   0.73049   0.10054   1.000
    Zr45    Zr   0.13346   0.79641   0.15124   1.000
    Zr46    Zr   0.95853   0.61176   0.86026   1.000
    Zr47    Zr   0.88636   0.74843   0.90058   1.000
    Zr48    Zr   0.16933   0.41045   0.76968   1.000
    Zr49    Zr   0.36088   0.36352   0.70016   1.000
    Zr50    Zr   0.54302   0.64769   0.90128   1.000
    Zr51    Zr   0.62063   0.60917   0.76936   1.000
    Zr52    Zr   0.32763   0.26959   0.89659   1.000
    Zr53    Zr   0.13361   0.20369   0.84650   1.000
    Zr54    Zr   0.95810   0.38818   0.13720   1.000
    Zr55    Zr   0.88562   0.25185   0.09631   1.000
    Zr56    Zr   0.16849   0.58936   0.22896   1.000
    Zr57    Zr   0.36126   0.63683   0.29662   1.000
    Zr58    Zr   0.54360   0.35223   0.09666   1.000
    Zr59    Zr   0.61968   0.39047   0.22900   1.000
    O60     O    0.92208   0.28678   0.09066   1.000
    O61     O    0.95832   0.35494   0.11110   1.000
    O62     O    0.26689   0.74712   0.09556   1.000
    O63     O    0.16995   0.78008   0.12090   1.000
    O64     O    0.82106   0.26020   0.15709   1.000
    O65     O    0.54356   0.37764   0.12990   1.000
    O66     O    0.45909   0.36500   0.04775   1.000
    O67     O    0.35065   0.67611   0.04977   1.000
    O68     O    0.04064   0.44071   0.12663   1.000
    O69     O    0.14584   0.54130   0.17251   1.000
    O70     O    0.18832   0.78255   0.21534   1.000
    O71     O    0.58159   0.39676   0.19607   1.000
    O72     O    0.69766   0.20255   0.20900   1.000
    O73     O    0.67425   0.10651   0.21894   1.000
    O74     O    0.68809   0.32952   0.22343   1.000
    O75     O    0.81137   0.28244   0.28208   1.000
    O76     O    0.22909   0.58294   0.24448   1.000
    O77     O    0.77000   0.08302   0.25365   1.000
    O78     O    0.32548   0.60668   0.27831   1.000
    O79     O    0.31114   0.82976   0.27449   1.000
    O80     O    0.41747   0.89709   0.30232   1.000
    O81     O    0.85327   0.04152   0.32577   1.000
    O82     O    0.30222   0.70276   0.28804   1.000
    O83     O    0.17832   0.76016   0.33999   1.000
    O84     O    0.45623   0.87785   0.36828   1.000
    O85     O    0.82958   0.28004   0.37656   1.000
    O86     O    0.95832   0.94069   0.37084   1.000
    O87     O    0.04053   0.85474   0.38583   1.000
    O88     O    0.73258   0.24709   0.40168   1.000
    O89     O    0.64868   0.17634   0.44769   1.000
    O90     O    0.07704   0.78659   0.40626   1.000
    O91     O    0.54113   0.86529   0.45025   1.000
    O92     O    0.54061   0.13506   0.54782   1.000
    O93     O    0.64904   0.82388   0.54987   1.000
    O94     O    0.07732   0.21333   0.59071   1.000
    O95     O    0.04088   0.14520   0.61118   1.000
    O96     O    0.73289   0.75289   0.59566   1.000
    O97     O    0.82986   0.71995   0.62094   1.000
    O98     O    0.17834   0.23990   0.65713   1.000
    O99     O    0.45601   0.12240   0.63001   1.000
    O100    O    0.95858   0.05938   0.62659   1.000
    O101    O    0.85363   0.95869   0.67232   1.000
    O102    O    0.81151   0.71746   0.71541   1.000
    O103    O    0.41771   0.10323   0.69613   1.000
    O104    O    0.30189   0.29754   0.70902   1.000
    O105    O    0.32542   0.39355   0.71899   1.000
    O106    O    0.31120   0.17053   0.72345   1.000
    O107    O    0.18825   0.21762   0.78219   1.000
    O108    O    0.77044   0.91704   0.74437   1.000
    O109    O    0.22964   0.41702   0.75375   1.000
    O110    O    0.67416   0.89329   0.77835   1.000
    O111    O    0.68863   0.67022   0.77447   1.000
    O112    O    0.58224   0.60292   0.80217   1.000
    O113    O    0.14635   0.45851   0.82595   1.000
    O114    O    0.69755   0.79720   0.78815   1.000
    O115    O    0.82150   0.73985   0.84008   1.000
    O116    O    0.54344   0.62218   0.86813   1.000
    O117    O    0.17026   0.21998   0.87674   1.000
    O118    O    0.04095   0.55917   0.87124   1.000
    O119    O    0.95867   0.64506   0.88627   1.000
    O120    O    0.26727   0.25293   0.90178   1.000
    O121    O    0.35111   0.32368   0.94772   1.000
    O122    O    0.92258   0.71340   0.90643   1.000
    O123    O    0.45849   0.63471   0.95014   1.000
    N124    N    0.87202   0.77260   0.48615   1.000
    O125    O    0.93458   0.79762   0.47013   1.000
    O126    O    0.78258   0.79334   0.47584   1.000
    O127    O    0.84950   0.75515   0.51588   1.000
    O128    O    0.81072   0.83147   0.49410   1.000
    O129    O    0.87336   0.86028   0.46483   1.000
    O130    O    0.87337   0.86360   0.52330   1.000
    N131    N    0.12757   0.72742   0.98546   1.000
    O132    O    0.12618   0.63975   0.96328   1.000
    O133    O    0.18883   0.66854   0.99248   1.000
    O134    O    0.12614   0.63642   0.02175   1.000
    O135    O    0.15015   0.74486   0.01552   1.000
    O136    O    0.06495   0.70238   0.96992   1.000
    O137    O    0.21700   0.70663   0.97545   1.000
    N138    N    0.62966   0.02755   0.71576   1.000
    O139    O    0.65247   0.99854   0.73519   1.000
    O140    O    0.56585   0.04099   0.69053   1.000
    O141    O    0.62857   0.04414   0.63073   1.000
    O142    O    0.62870   0.98313   0.63078   1.000
    O143    O    0.69135   0.01526   0.65999   1.000
    O144    O    0.71870   0.03707   0.69521   1.000
    N145    N    0.87167   0.22750   0.51138   1.000
    O146    O    0.78225   0.20687   0.52186   1.000
    O147    O    0.87309   0.13654   0.47433   1.000
    O148    O    0.81031   0.16875   0.50355   1.000
    O149    O    0.87309   0.13987   0.53280   1.000
    O150    O    0.84912   0.24493   0.48163   1.000
    O151    O    0.93439   0.20244   0.52723   1.000
    N152    N    0.36981   0.47243   0.21572   1.000
    O153    O    0.43360   0.45900   0.19047   1.000
    O154    O    0.37078   0.51685   0.13074   1.000
    O155    O    0.37094   0.45585   0.13070   1.000
    O156    O    0.30809   0.48472   0.16001   1.000
    O157    O    0.28077   0.46291   0.19524   1.000
    O158    O    0.34702   0.50144   0.23518   1.000
    N159    N    0.12811   0.27255   0.01148   1.000
    O160    O    0.12665   0.36350   0.97446   1.000
    O161    O    0.18946   0.33130   0.00361   1.000
    O162    O    0.12661   0.36017   0.03292   1.000
    O163    O    0.15068   0.25512   0.98176   1.000
    O164    O    0.21750   0.29319   0.02194   1.000
    O165    O    0.06530   0.29763   0.02728   1.000
    N166    N    0.37014   0.52759   0.78253   1.000
    O167    O    0.34730   0.49861   0.76294   1.000
    O168    O    0.28102   0.53705   0.80317   1.000
    O169    O    0.43398   0.54087   0.80768   1.000
    O170    O    0.37129   0.48291   0.86735   1.000
    O171    O    0.37113   0.54390   0.86739   1.000
    O172    O    0.30848   0.51511   0.83820   1.000
    N173    N    0.62947   0.97249   0.28252   1.000
    O174    O    0.62836   0.01716   0.36736   1.000
    O175    O    0.62848   0.95614   0.36741   1.000
    O176    O    0.69113   0.98495   0.33814   1.000
    O177    O    0.56565   0.95919   0.30773   1.000
    O178    O    0.71857   0.96300   0.30307   1.000
    O179    O    0.65231   0.00145   0.26292   1.000
loop_
    _geom_bond_atom_site_label_1
    _geom_bond_atom_site_label_2
    _geom_bond_distance
    _geom_bond_site_symmetry_2
    _ccdc_geom_bond_type
    Zr25   O60       0.63365      .   S
    Zr55   O60       0.63365      .   S
    Zr25   O61       0.63727      .   S
    Zr54   O61       0.63727      .   S
    Zr20   O62       0.63844      .   S
    Zr44   O62       0.63844      .   S
    Zr20   O63       0.63364      .   S
    Zr45   O63       0.63364      .   S
    Zr55   O64       1.13189      .   S
    Zr5    O64       1.13189      .   S
    Zr58   O65       0.63674      .   S
    Zr27   O65       0.63674      .   S
    Zr58   O66       1.12725      .   S
    Zr9    O66       1.12725  1_556   S
    Zr44   O67       1.14758      .   S
    Zr6    O67       1.14758  1_556   S
    Zr10   O68       1.12815      .   S
    Zr54   O68       1.12815  1_655   S
    Zr10   O69       1.14730      .   S
    Zr56   O69       1.14730      .   S
    Zr45   O70       1.14014      .   S
    Zr8    O70       1.14014      .   S
    Zr27   O71       0.63378      .   S
    Zr59   O71       0.63378      .   S
    Zr33   O72       1.14279      .   S
    Zr5    O72       1.14279      .   S
    Zr33   O73       0.63291      .   S
    Zr14   O73       0.63291      .   S
    Zr5    O74       1.12454      .   S
    Zr59   O74       1.12454      .   S
    Zr5    O75       1.14174      .   S
    Zr37   O75       1.14174      .   S
    Zr56   O76       0.63938      .   S
    Zr26   O76       0.63938      .   S
    Zr14   O77       0.63944      .   S
    Zr32   O77       0.63944      .   S
    Zr26   O78       0.63287      .   S
    Zr57   O78       0.63287      .   S
    Zr35   O79       1.12341      .   S
    Zr8    O79       1.12341      .   S
    Zr35   O80       0.63372      .   S
    Zr15   O80       0.63372      .   S
    Zr32   O81       1.14495      .   S
    Zr1    O81       1.14495  1_565   S
    Zr8    O82       1.14152      .   S
    Zr57   O82       1.14152      .   S
    Zr8    O83       1.13076      .   S
    Zr31   O83       1.13076      .   S
    Zr15   O84       0.63651      .   S
    Zr34   O84       0.63651      .   S
    Zr37   O85       0.63363      .   S
    Zr16   O85       0.63363      .   S
    Zr30   O86       1.12830  1_455   S
    Zr1    O86       1.12830      .   S
    Zr30   O87       0.63719      .   S
    Zr13   O87       0.63719      .   S
    Zr36   O88       0.63840      .   S
    Zr16   O88       0.63840      .   S
    Zr36   O89       1.14898      .   S
    Zr3    O89       1.14898      .   S
    Zr31   O90       0.63370      .   S
    Zr13   O90       0.63370      .   S
    Zr34   O91       1.12678      .   S
    Zr0    O91       1.12678      .   S
    Zr3    O92       1.12728      .   S
    Zr42   O92       1.12728      .   S
    Zr0    O93       1.14793      .   S
    Zr28   O93       1.14793      .   S
    Zr17   O94       0.63370      .   S
    Zr39   O94       0.63370      .   S
    Zr17   O95       0.63719      .   S
    Zr38   O95       0.63719      .   S
    Zr12   O96       0.63841      .   S
    Zr28   O96       0.63841      .   S
    Zr12   O97       0.63367      .   S
    Zr29   O97       0.63367      .   S
    Zr39   O98       1.13209      .   S
    Zr11   O98       1.13209      .   S
    Zr42   O99       0.63678      .   S
    Zr19   O99       0.63678      .   S
    Zr4    O100      1.12811      .   S
    Zr38   O100      1.12811  1_455   S
    Zr4    O101      1.14697  1_545   S
    Zr40   O101      1.14697      .   S
    Zr29   O102      1.14032      .   S
    Zr2    O102      1.14032      .   S
    Zr19   O103      0.63379      .   S
    Zr43   O103      0.63379      .   S
    Zr49   O104      1.14306      .   S
    Zr11   O104      1.14306      .   S
    Zr49   O105      0.63296      .   S
    Zr22   O105      0.63296      .   S
    Zr11   O106      1.12474      .   S
    Zr43   O106      1.12474      .   S
    Zr11   O107      1.14177      .   S
    Zr53   O107      1.14177      .   S
    Zr40   O108      0.63938      .   S
    Zr18   O108      0.63938      .   S
    Zr22   O109      0.63943      .   S
    Zr48   O109      0.63943      .   S
    Zr18   O110      0.63282      .   S
    Zr41   O110      0.63282      .   S
    Zr51   O111      1.12363      .   S
    Zr2    O111      1.12363      .   S
    Zr51   O112      0.63371      .   S
    Zr23   O112      0.63371      .   S
    Zr48   O113      1.14542      .   S
    Zr7    O113      1.14542      .   S
    Zr2    O114      1.14164      .   S
    Zr41   O114      1.14164      .   S
    Zr2    O115      1.13098      .   S
    Zr47   O115      1.13098      .   S
    Zr23   O116      0.63651      .   S
    Zr50   O116      0.63651      .   S
    Zr53   O117      0.63360      .   S
    Zr24   O117      0.63360      .   S
    Zr46   O118      1.12824  1_655   S
    Zr7    O118      1.12824      .   S
    Zr46   O119      0.63728      .   S
    Zr21   O119      0.63728      .   S
    Zr52   O120      0.63840      .   S
    Zr24   O120      0.63840      .   S
    Zr52   O121      1.14887      .   S
    Zr9    O121      1.14887      .   S
    Zr47   O122      0.63371      .   S
    Zr21   O122      0.63371      .   S
    Zr50   O123      1.12697      .   S
    Zr6    O123      1.12697      .   S
    N124   O125      0.75130      .   S
    Zr13   O125      1.40639  1_455   S
    N124   O126      0.93053      .   S
    Zr0    O126      2.00388      .   S
    N124   O127      0.56968      .   S
    Zr12   O127      1.30406      .   S
    N124   O128      1.06345      .   S
    Zr0    O128      1.91874      .   S
    N124   O129      1.34463      .   S
    Zr1    O129      2.35665      .   S
    N124   O130      1.46951      .   S
    Zr4    O130      2.56320  1_545   S
    N131   O132      1.34786      .   S
    Zr7    O132      2.34211      .   S
    N131   O133      1.06184      .   S
    Zr6    O133      1.92054      .   S
    N131   O134      1.46429  1_556   S
    Zr10   O134      2.57825      .   S
    N131   O135      0.57415  1_556   S
    Zr20   O135      1.30906      .   S
    N131   O136      0.74968      .   S
    Zr21   O136      1.40309  1_655   S
    N131   O137      0.92978      .   S
    Zr6    O137      2.00512      .   S
    N138   O139      0.56944  1_545   S
    Zr18   O139      1.30348      .   S
    N138   O140      0.75557      .   S
    Zr19   O140      1.41267      .   S
    N138   O141      1.33380      .   S
    Zr3    O141      2.34170      .   S
    N138   O142      1.46714  1_545   S
    Zr0    O142      2.56077      .   S
    N138   O143      1.06147      .   S
    Zr4    O143      1.91406      .   S
    N138   O144      0.92701      .   S
    Zr4    O144      2.00242      .   S
    N145   O146      0.93059      .   S
    Zr3    O146      2.00324      .   S
    N145   O147      1.46837      .   S
    Zr1    O147      2.56020  1_565   S
    N145   O148      1.06291      .   S
    Zr3    O148      1.91885      .   S
    N145   O149      1.34446      .   S
    Zr4    O149      2.35770      .   S
    N145   O150      0.56997      .   S
    Zr16   O150      1.30485      .   S
    N145   O151      0.75173      .   S
    Zr17   O151      1.40691  1_455   S
    N152   O153      0.75528      .   S
    Zr27   O153      1.41220      .   S
    N152   O154      1.46709      .   S
    Zr6    O154      2.56089  1_556   S
    N152   O155      1.33364      .   S
    Zr9    O155      2.34131  1_556   S
    N152   O156      1.06142      .   S
    Zr10   O156      1.91397      .   S
    N152   O157      0.92693      .   S
    Zr10   O157      2.00241      .   S
    N152   O158      0.56942      .   S
    Zr26   O158      1.30326      .   S
    N159   O160      1.46806  1_554   S
    Zr7    O160      2.55914      .   S
    N159   O161      1.06276      .   S
    Zr9    O161      1.91822  1_556   S
    N159   O162      1.34432      .   S
    Zr10   O162      2.35795      .   S
    N159   O163      0.56959  1_554   S
    Zr24   O163      1.30447      .   S
    N159   O164      0.93031      .   S
    Zr9    O164      2.00286  1_556   S
    N159   O165      0.75223      .   S
    Zr25   O165      1.40761  1_655   S
    N166   O167      0.57066      .   S
    Zr22   O167      1.30487      .   S
    N166   O168      0.92796      .   S
    Zr7    O168      2.00155      .   S
    N166   O169      0.75479      .   S
    Zr23   O169      1.41168      .   S
    N166   O170      1.46672      .   S
    Zr9    O170      2.55995      .   S
    N166   O171      1.33057      .   S
    Zr6    O171      2.33579      .   S
    N166   O172      1.06063      .   S
    Zr7    O172      1.91579      .   S
    N173   O174      1.46691  1_565   S
    Zr3    O174      2.56006      .   S
    N173   O175      1.33099      .   S
    Zr0    O175      2.33693      .   S
    N173   O176      1.06054      .   S
    Zr1    O176      1.91522      .   S
    N173   O177      0.75480      .   S
    Zr15   O177      1.41169      .   S
    N173   O178      0.92764      .   S
    Zr1    O178      2.00125      .   S
    N173   O179      0.57053  1_565   S
    Zr14   O179      1.30478      .   S
