# CIF file generated by openbabel 2.4.90, see http://openbabel.sf.net
data_I
_chemical_name_common ''
_cell_length_a 9.6555
_cell_length_b 14.871
_cell_length_c 15.415
_cell_angle_alpha 89.996
_cell_angle_beta 89.972
_cell_angle_gamma 89.963
_space_group_name_H-M_alt 'P 1'
_space_group_name_Hall 'P 1'
loop_
    _symmetry_equiv_pos_as_xyz
    x,y,z
loop_
    _atom_site_label
    _atom_site_type_symbol
    _atom_site_fract_x
    _atom_site_fract_y
    _atom_site_fract_z
    _atom_site_occupancy
    Zr0     Zr   0.62563   0.87824   0.49906   1.000
    Zr1     Zr   0.87621   0.99346   0.38199   1.000
    Zr2     Zr   0.75664   0.73127   0.77957   1.000
    Zr3     Zr   0.62512   0.12228   0.49885   1.000
    Zr4     Zr   0.87623   0.00676   0.61588   1.000
    Zr5     Zr   0.75651   0.26856   0.21787   1.000
    Zr6     Zr   0.37396   0.62174   0.99899   1.000
    Zr7     Zr   0.12337   0.50657   0.88221   1.000
    Zr8     Zr   0.24317   0.76869   0.27945   1.000
    Zr9     Zr   0.37459   0.37777   0.99884   1.000
    Zr10    Zr   0.12318   0.49324   0.11606   1.000
    Zr11    Zr   0.24290   0.23155   0.71788   1.000
    N12     N    0.87202   0.77260   0.48615   1.000
    O13     O    0.78258   0.79334   0.47584   1.000
    O14     O    0.81072   0.83147   0.49410   1.000
    O15     O    0.87336   0.86028   0.46483   1.000
    O16     O    0.87337   0.86360   0.52330   1.000
    N17     N    0.12757   0.72742   0.98546   1.000
    O18     O    0.12618   0.63975   0.96328   1.000
    O19     O    0.18883   0.66854   0.99248   1.000
    O20     O    0.12614   0.63642   0.02175   1.000
    O21     O    0.21700   0.70663   0.97545   1.000
    N22     N    0.62966   0.02755   0.71576   1.000
    O23     O    0.62857   0.04414   0.63073   1.000
    O24     O    0.62870   0.98313   0.63078   1.000
    O25     O    0.69135   0.01526   0.65999   1.000
    O26     O    0.71870   0.03707   0.69521   1.000
    N27     N    0.87167   0.22750   0.51138   1.000
    O28     O    0.78225   0.20687   0.52186   1.000
    O29     O    0.87309   0.13654   0.47433   1.000
    O30     O    0.81031   0.16875   0.50355   1.000
    O31     O    0.87309   0.13987   0.53280   1.000
    N32     N    0.36981   0.47243   0.21572   1.000
    O33     O    0.37078   0.51685   0.13074   1.000
    O34     O    0.37094   0.45585   0.13070   1.000
    O35     O    0.30809   0.48472   0.16001   1.000
    O36     O    0.28077   0.46291   0.19524   1.000
    N37     N    0.12811   0.27255   0.01148   1.000
    O38     O    0.12665   0.36350   0.97446   1.000
    O39     O    0.18946   0.33130   0.00361   1.000
    O40     O    0.12661   0.36017   0.03292   1.000
    O41     O    0.21750   0.29319   0.02194   1.000
    N42     N    0.37014   0.52759   0.78253   1.000
    O43     O    0.28102   0.53705   0.80317   1.000
    O44     O    0.37129   0.48291   0.86735   1.000
    O45     O    0.37113   0.54390   0.86739   1.000
    O46     O    0.30848   0.51511   0.83820   1.000
    N47     N    0.62947   0.97249   0.28252   1.000
    O48     O    0.62836   0.01716   0.36736   1.000
    O49     O    0.62848   0.95614   0.36741   1.000
    O50     O    0.69113   0.98495   0.33814   1.000
    O51     O    0.71857   0.96300   0.30307   1.000
    C52     C    0.56893   0.38192   0.16293   1.000
    O53     O    0.50127   0.42046   0.17670   1.000
    O54     O    0.62851   0.35572   0.19318   1.000
    O55     O    0.51401   0.37346   0.10534   1.000
    C56     C    0.06484   0.82037   0.39073   1.000
    O57     O    0.99971   0.80899   0.43043   1.000
    O58     O    0.01158   0.88053   0.38078   1.000
    O59     O    0.12158   0.79026   0.36536   1.000
    C60     C    0.93408   0.32058   0.10617   1.000
    O61     O    0.98736   0.38064   0.11640   1.000
    O62     O    0.87757   0.29039   0.13163   1.000
    O63     O    0.99969   0.30910   0.06672   1.000
    C64     C    0.77713   0.26350   0.38322   1.000
    O65     O    0.81312   0.25421   0.43242   1.000
    O66     O    0.79425   0.27297   0.33265   1.000
    O67     O    0.71291   0.21992   0.41546   1.000
    C68     C    0.72627   0.10086   0.23581   1.000
    O69     O    0.78977   0.07119   0.28079   1.000
    O70     O    0.68929   0.05116   0.24936   1.000
    O71     O    0.71197   0.15171   0.22240   1.000
    C72     C    0.43052   0.88218   0.33536   1.000
    O73     O    0.49809   0.92068   0.32155   1.000
    O74     O    0.48582   0.87373   0.39281   1.000
    O75     O    0.37083   0.85597   0.30493   1.000
    C76     C    0.22242   0.76355   0.11412   1.000
    O77     O    0.28653   0.71983   0.08194   1.000
    O78     O    0.20537   0.77305   0.16473   1.000
    O79     O    0.18628   0.75421   0.06482   1.000
    C80     C    0.43051   0.11810   0.66302   1.000
    O81     O    0.49818   0.07955   0.67677   1.000
    O82     O    0.48556   0.12658   0.60542   1.000
    O83     O    0.37085   0.14431   0.69324   1.000
    C84     C    0.27339   0.39918   0.73589   1.000
    O85     O    0.31035   0.44890   0.74942   1.000
    O86     O    0.28764   0.34836   0.72246   1.000
    O87     O    0.20987   0.42885   0.78092   1.000
    C88     C    0.22272   0.23652   0.88336   1.000
    O89     O    0.28691   0.28010   0.91554   1.000
    O90     O    0.20549   0.22707   0.83278   1.000
    O91     O    0.18670   0.24582   0.93256   1.000
    C92     C    0.93456   0.67952   0.89104   1.000
    O93     O    0.98776   0.61934   0.88114   1.000
    O94     O    0.87803   0.70968   0.86556   1.000
    O95     O    0.99976   0.69095   0.93048   1.000
    C96     C    0.56917   0.61784   0.83521   1.000
    O97     O    0.50157   0.57935   0.82144   1.000
    O98     O    0.62890   0.64403   0.80484   1.000
    O99     O    0.51383   0.62628   0.89267   1.000
    C100    C    0.77738   0.73648   0.61419   1.000
    O101    O    0.79445   0.72697   0.66480   1.000
    O102    O    0.71321   0.78018   0.58203   1.000
    O103    O    0.81344   0.74581   0.56503   1.000
    C104    C    0.06518   0.17955   0.60624   1.000
    O105    O    0.01188   0.11946   0.61641   1.000
    O106    O    0.12176   0.20973   0.63168   1.000
    O107    O    0.99978   0.19099   0.56673   1.000
    C108    C    0.27315   0.60090   0.26186   1.000
    O109    O    0.20949   0.57110   0.21718   1.000
    O110    O    0.28768   0.65183   0.27495   1.000
    O111    O    0.31009   0.55117   0.24852   1.000
    C112    C    0.72645   0.89907   0.76182   1.000
    O113    O    0.68946   0.94880   0.74851   1.000
    O114    O    0.79004   0.92888   0.71707   1.000
    O115    O    0.71200   0.84813   0.77498   1.000
loop_
    _geom_bond_atom_site_label_1
    _geom_bond_atom_site_label_2
    _geom_bond_distance
    _geom_bond_site_symmetry_2
    _ccdc_geom_bond_type
    N12    O13       0.93053      .   S
    Zr0    O13       2.00388      .   S
    N12    O14       1.06345      .   S
    Zr0    O14       1.91874      .   S
    N12    O15       1.34463      .   S
    Zr1    O15       2.35665      .   S
    N12    O16       1.46951      .   S
    Zr4    O16       2.56320  1_545   S
    N17    O18       1.34786      .   S
    Zr7    O18       2.34211      .   S
    N17    O19       1.06184      .   S
    Zr6    O19       1.92054      .   S
    N17    O20       1.46429  1_556   S
    Zr10   O20       2.57825      .   S
    N17    O21       0.92978      .   S
    Zr6    O21       2.00512      .   S
    N22    O23       1.33380      .   S
    Zr3    O23       2.34170      .   S
    N22    O24       1.46714  1_545   S
    Zr0    O24       2.56077      .   S
    N22    O25       1.06147      .   S
    Zr4    O25       1.91406      .   S
    N22    O26       0.92701      .   S
    Zr4    O26       2.00242      .   S
    N27    O28       0.93059      .   S
    Zr3    O28       2.00324      .   S
    N27    O29       1.46837      .   S
    Zr1    O29       2.56020  1_565   S
    N27    O30       1.06291      .   S
    Zr3    O30       1.91885      .   S
    N27    O31       1.34446      .   S
    Zr4    O31       2.35770      .   S
    N32    O33       1.46709      .   S
    Zr6    O33       2.56089  1_556   S
    N32    O34       1.33364      .   S
    Zr9    O34       2.34131  1_556   S
    N32    O35       1.06142      .   S
    Zr10   O35       1.91397      .   S
    N32    O36       0.92693      .   S
    Zr10   O36       2.00241      .   S
    N37    O38       1.46806  1_554   S
    Zr7    O38       2.55914      .   S
    N37    O39       1.06276      .   S
    Zr9    O39       1.91822  1_556   S
    N37    O40       1.34432      .   S
    Zr10   O40       2.35795      .   S
    N37    O41       0.93031      .   S
    Zr9    O41       2.00286  1_556   S
    N42    O43       0.92796      .   S
    Zr7    O43       2.00155      .   S
    N42    O44       1.46672      .   S
    Zr9    O44       2.55995      .   S
    N42    O45       1.33057      .   S
    Zr6    O45       2.33579      .   S
    N42    O46       1.06063      .   S
    Zr7    O46       1.91579      .   S
    N47    O48       1.46691  1_565   S
    Zr3    O48       2.56006      .   S
    N47    O49       1.33099      .   S
    Zr0    O49       2.33693      .   S
    N47    O50       1.06054      .   S
    Zr1    O50       1.91522      .   S
    N47    O51       0.92764      .   S
    Zr1    O51       2.00125      .   S
    C52    O53       0.89430      .   S
    N32    O53       1.60256      .   S
    C52    O54       0.83675      .   S
    Zr5    O54       1.83040      .   S
    C52    O55       1.04200      .   S
    Zr9    O55       2.12459  1_556   S
    C56    O57       0.89349  1_455   S
    N12    O57       1.59704      .   S
    C56    O58       1.04299      .   S
    Zr1    O58       2.12751  1_655   S
    C56    O59       0.80809      .   S
    Zr8    O59       1.79809      .   S
    C60    O61       1.04311      .   S
    Zr10   O61       2.12757  1_455   S
    C60    O62       0.80829      .   S
    Zr5    O62       1.79945      .   S
    C60    O63       0.89421      .   S
    N37    O63       1.59886  1_455   S
    C64    O65       0.84580      .   S
    N27    O65       1.39965      .   S
    C64    O66       0.80913      .   S
    Zr5    O66       1.80784      .   S
    C64    O67       1.02550      .   S
    Zr3    O67       2.11659      .   S
    C68    O69       1.02536      .   S
    Zr1    O69       2.11339  1_565   S
    C68    O70       0.84722      .   S
    N47    O70       1.40145  1_565   S
    C68    O71       0.79584      .   S
    Zr5    O71       1.79180      .   S
    C72    O73       0.89397      .   S
    N47    O73       1.60158      .   S
    C72    O74       1.04183      .   S
    Zr0    O74       2.12407      .   S
    C72    O75       0.83951      .   S
    Zr8    O75       1.83324      .   S
    C76    O77       1.02528      .   S
    Zr6    O77       2.11505  1_556   S
    C76    O78       0.80972      .   S
    Zr8    O78       1.80704      .   S
    C76    O79       0.84788      .   S
    N17    O79       1.40621  1_556   S
    C80    O81       0.89458      .   S
    N22    O81       1.60321      .   S
    C80    O82       1.04232      .   S
    Zr3    O82       2.12508      .   S
    C80    O83       0.83678      .   S
    Zr11   O83       1.83063      .   S
    C84    O85       0.84723      .   S
    N42    O85       1.40160      .   S
    C84    O86       0.79556      .   S
    Zr11   O86       1.79164      .   S
    C84    O87       1.02560      .   S
    Zr7    O87       2.11411      .   S
    C88    O89       1.02525      .   S
    Zr9    O89       2.11613      .   S
    C88    O90       0.80967      .   S
    Zr11   O90       1.80858      .   S
    C88    O91       0.84558      .   S
    N37    O91       1.39903  1_554   S
    C92    O93       1.04270      .   S
    Zr7    O93       2.12703  1_455   S
    C92    O94       0.80831      .   S
    Zr2    O94       1.79859      .   S
    C92    O95       0.89178      .   S
    N17    O95       1.59292  1_455   S
    C96    O97       0.89397      .   S
    N42    O97       1.60159      .   S
    C96    O98       0.83874      .   S
    Zr2    O98       1.83240      .   S
    C96    O99       1.04181      .   S
    Zr6    O99       2.12420      .   S
    C100   O101      0.80986      .   S
    Zr2    O101      1.80736      .   S
    C100   O102      1.02557      .   S
    Zr0    O102      2.11576      .   S
    C100   O103      0.84526      .   S
    N12    O103      1.39882      .   S
    C104   O105      1.04329      .   S
    Zr4    O105      2.12780  1_655   S
    C104   O106      0.80881      .   S
    Zr11   O106      1.80031      .   S
    C104   O107      0.89377  1_455   S
    N27    O107      1.59782      .   S
    C108   O109      1.02433      .   S
    Zr10   O109      2.11374      .   S
    C108   O110      0.79636      .   S
    Zr8    O110      1.79121      .   S
    C108   O111      0.84623      .   S
    N32    O111      1.39934      .   S
    C112   O113      0.84641      .   S
    N22    O113      1.39955  1_545   S
    C112   O114      1.02434      .   S
    Zr4    O114      2.11352  1_545   S
    C112   O115      0.79654      .   S
    Zr2    O115      1.79160      .   S
