# CIF file generated by openbabel 2.4.90, see http://openbabel.sf.net
data_I
_chemical_name_common 'VESTA_phase_1'
_cell_length_a 18.655
_cell_length_b 17.343
_cell_length_c 20.282
_cell_angle_alpha 89.999
_cell_angle_beta 90.009
_cell_angle_gamma 98.643
_space_group_name_H-M_alt 'P 1'
_space_group_name_Hall 'P 1'
loop_
    _symmetry_equiv_pos_as_xyz
    x,y,z
loop_
    _atom_site_label
    _atom_site_type_symbol
    _atom_site_fract_x
    _atom_site_fract_y
    _atom_site_fract_z
    _atom_site_occupancy
    Zn0     Zn   0.03148   0.27337   0.81630   1.000
    Zn1     Zn   0.53148   0.27338   0.81630   1.000
    Zn2     Zn   0.21856   0.22660   0.31636   1.000
    Zn3     Zn   0.71856   0.22661   0.31636   1.000
    Zn4     Zn   0.46853   0.72664   0.18362   1.000
    Zn5     Zn   0.96854   0.72664   0.18362   1.000
    Zn6     Zn   0.28145   0.77341   0.68362   1.000
    Zn7     Zn   0.78146   0.77341   0.68362   1.000
    H8      H    0.40019   0.05244   0.76000   1.000
    H9      H    0.90019   0.05244   0.76079   1.000
    H10     H    0.19062   0.93105   0.81259   1.000
    H11     H    0.69062   0.93106   0.81259   1.000
    H12     H    0.27119   0.15268   0.90450   1.000
    H13     H    0.77119   0.15268   0.90450   1.000
    H14     H    0.08313   0.96874   0.85145   1.000
    H15     H    0.58313   0.96874   0.85145   1.000
    H16     H    0.13198   0.92276   0.91218   1.000
    H17     H    0.63198   0.92276   0.91218   1.000
    H18     H    0.47334   0.01751   0.88131   1.000
    H19     H    0.97335   0.01751   0.88131   1.000
    H20     H    0.11706   0.96030   0.03447   1.000
    H21     H    0.61707   0.96029   0.03447   1.000
    H22     H    0.05250   0.11937   0.75652   1.000
    H23     H    0.55251   0.11938   0.75652   1.000
    H24     H    0.12958   0.06739   0.67117   1.000
    H25     H    0.62958   0.06739   0.67117   1.000
    H26     H    0.25579   0.29603   0.66000   1.000
    H27     H    0.75579   0.29603   0.66000   1.000
    H28     H    0.17394   0.33924   0.74766   1.000
    H29     H    0.67394   0.33924   0.74766   1.000
    H30     H    0.21223   0.16196   0.55497   1.000
    H31     H    0.71223   0.16196   0.55497   1.000
    H32     H    0.24220   0.08903   0.60466   1.000
    H33     H    0.74221   0.08904   0.60466   1.000
    H34     H    0.35272   0.13157   0.51830   1.000
    H35     H    0.85272   0.13157   0.51830   1.000
    H36     H    0.31091   0.21294   0.49330   1.000
    H37     H    0.81091   0.21295   0.49300   1.000
    H38     H    0.41280   0.30546   0.53567   1.000
    H39     H    0.91281   0.30547   0.53567   1.000
    H40     H    0.44275   0.23914   0.47860   1.000
    H41     H    0.94276   0.23915   0.47861   1.000
    H42     H    0.47175   0.20070   0.68040   1.000
    H43     H    0.97175   0.20070   0.68040   1.000
    H44     H    0.43136   0.28327   0.65766   1.000
    H45     H    0.93136   0.28328   0.65765   1.000
    H46     H    0.33860   0.17836   0.69567   1.000
    H47     H    0.83861   0.17837   0.69560   1.000
    H48     H    0.36797   0.11014   0.63997   1.000
    H49     H    0.86797   0.11015   0.63997   1.000
    H50     H    0.03743   0.32951   0.57792   1.000
    H51     H    0.53743   0.32951   0.57792   1.000
    H52     H    0.06972   0.25321   0.62080   1.000
    H53     H    0.56973   0.25321   0.62080   1.000
    H54     H    0.02436   0.13831   0.49240   1.000
    H55     H    0.52436   0.13831   0.49240   1.000
    H56     H    0.10196   0.12133   0.39232   1.000
    H57     H    0.60197   0.12132   0.39232   1.000
    H58     H    0.23294   0.33144   0.42000   1.000
    H59     H    0.73294   0.33144   0.42899   1.000
    H60     H    0.16044   0.35828   0.52674   1.000
    H61     H    0.66044   0.35828   0.52670   1.000
    H62     H    0.34976   0.44752   0.26079   1.000
    H63     H    0.84977   0.44752   0.26079   1.000
    H64     H    0.05931   0.56900   0.31259   1.000
    H65     H    0.55932   0.56900   0.31260   1.000
    H66     H    0.47885   0.34734   0.40450   1.000
    H67     H    0.97885   0.34734   0.40451   1.000
    H68     H    0.16682   0.53143   0.35149   1.000
    H69     H    0.66682   0.53143   0.35149   1.000
    H70     H    0.11795   0.57730   0.41226   1.000
    H71     H    0.61795   0.57730   0.41226   1.000
    H72     H    0.27659   0.48254   0.38130   1.000
    H73     H    0.77659   0.48254   0.38130   1.000
    H74     H    0.13297   0.53978   0.53450   1.000
    H75     H    0.63297   0.53978   0.53450   1.000
    H76     H    0.19761   0.38057   0.25646   1.000
    H77     H    0.69761   0.38057   0.25646   1.000
    H78     H    0.12058   0.43250   0.17101   1.000
    H79     H    0.62058   0.43250   0.17101   1.000
    H80     H    0.99433   0.20387   0.15992   1.000
    H81     H    0.49433   0.20387   0.15992   1.000
    H82     H    0.07614   0.16072   0.24767   1.000
    H83     H    0.57614   0.16072   0.24768   1.000
    H84     H    0.03786   0.33779   0.05483   1.000
    H85     H    0.53787   0.33779   0.05483   1.000
    H86     H    0.00796   0.41082   0.10444   1.000
    H87     H    0.50797   0.41082   0.10444   1.000
    H88     H    0.39732   0.36816   0.01810   1.000
    H89     H    0.89732   0.36816   0.01816   1.000
    H90     H    0.43913   0.28675   0.99322   1.000
    H91     H    0.93913   0.28676   0.99322   1.000
    H92     H    0.33728   0.19429   0.03570   1.000
    H93     H    0.83728   0.19430   0.03570   1.000
    H94     H    0.30727   0.26051   0.97862   1.000
    H95     H    0.80727   0.26052   0.97862   1.000
    H96     H    0.27847   0.29928   0.18039   1.000
    H97     H    0.77847   0.29928   0.18000   1.000
    H98     H    0.31885   0.21668   0.15772   1.000
    H99     H    0.81885   0.21667   0.15770   1.000
    H100    H    0.41164   0.32166   0.19557   1.000
    H101    H    0.91164   0.32166   0.19558   1.000
    H102    H    0.38220   0.38978   0.13982   1.000
    H103    H    0.88220   0.38978   0.13980   1.000
    H104    H    0.21262   0.17036   0.07801   1.000
    H105    H    0.71262   0.17036   0.07801   1.000
    H106    H    0.18041   0.24674   0.12084   1.000
    H107    H    0.68041   0.24674   0.12084   1.000
    H108    H    0.22586   0.36147   0.99233   1.000
    H109    H    0.72586   0.36147   0.99230   1.000
    H110    H    0.14824   0.37847   0.89225   1.000
    H111    H    0.64824   0.37848   0.89225   1.000
    H112    H    0.01706   0.16854   0.92906   1.000
    H113    H    0.51706   0.16853   0.92900   1.000
    H114    H    0.08954   0.14169   0.02683   1.000
    H115    H    0.58954   0.14168   0.02683   1.000
    H116    H    0.09981   0.94757   0.23918   1.000
    H117    H    0.59981   0.94757   0.23918   1.000
    H118    H    0.30939   0.06895   0.18739   1.000
    H119    H    0.80938   0.06896   0.18739   1.000
    H120    H    0.22881   0.84733   0.09547   1.000
    H121    H    0.72881   0.84733   0.09547   1.000
    H122    H    0.41687   0.03127   0.14853   1.000
    H123    H    0.91687   0.03128   0.14853   1.000
    H124    H    0.36802   0.07725   0.08780   1.000
    H125    H    0.86802   0.07725   0.08780   1.000
    H126    H    0.02665   0.98251   0.11867   1.000
    H127    H    0.52666   0.98251   0.11867   1.000
    H128    H    0.38293   0.03972   0.96551   1.000
    H129    H    0.88294   0.03972   0.96551   1.000
    H130    H    0.44749   0.88064   0.24344   1.000
    H131    H    0.94749   0.88064   0.24344   1.000
    H132    H    0.37042   0.93262   0.32879   1.000
    H133    H    0.87042   0.93262   0.32879   1.000
    H134    H    0.24422   0.70398   0.33998   1.000
    H135    H    0.74422   0.70398   0.33998   1.000
    H136    H    0.32606   0.66077   0.25231   1.000
    H137    H    0.82606   0.66077   0.25231   1.000
    H138    H    0.28777   0.83804   0.44500   1.000
    H139    H    0.78777   0.83805   0.44500   1.000
    H140    H    0.25780   0.91098   0.39532   1.000
    H141    H    0.75780   0.91098   0.39532   1.000
    H142    H    0.14729   0.86844   0.48167   1.000
    H143    H    0.64729   0.86844   0.48160   1.000
    H144    H    0.18910   0.78706   0.50668   1.000
    H145    H    0.68910   0.78706   0.50668   1.000
    H146    H    0.08719   0.69455   0.46430   1.000
    H147    H    0.58720   0.69455   0.46430   1.000
    H148    H    0.05725   0.76087   0.52136   1.000
    H149    H    0.55725   0.76087   0.52136   1.000
    H150    H    0.02825   0.79933   0.31957   1.000
    H151    H    0.52825   0.79933   0.31957   1.000
    H152    H    0.06864   0.71675   0.34232   1.000
    H153    H    0.56864   0.71675   0.34232   1.000
    H154    H    0.16140   0.82165   0.30431   1.000
    H155    H    0.66140   0.82165   0.30431   1.000
    H156    H    0.13204   0.88987   0.36001   1.000
    H157    H    0.63204   0.88987   0.36000   1.000
    H158    H    0.46257   0.67051   0.42205   1.000
    H159    H    0.96257   0.67051   0.42200   1.000
    H160    H    0.43028   0.74681   0.37918   1.000
    H161    H    0.93029   0.74682   0.37918   1.000
    H162    H    0.47564   0.86171   0.50758   1.000
    H163    H    0.97564   0.86171   0.50758   1.000
    H164    H    0.39804   0.87869   0.60766   1.000
    H165    H    0.89804   0.87869   0.60766   1.000
    H166    H    0.26706   0.66858   0.57098   1.000
    H167    H    0.76707   0.66858   0.57098   1.000
    H168    H    0.33956   0.64174   0.47324   1.000
    H169    H    0.83956   0.64174   0.47320   1.000
    H170    H    0.15024   0.55248   0.73918   1.000
    H171    H    0.65024   0.55249   0.73919   1.000
    H172    H    0.44068   0.43101   0.68738   1.000
    H173    H    0.94069   0.43101   0.68738   1.000
    H174    H    0.02115   0.65267   0.59547   1.000
    H175    H    0.52115   0.65267   0.59547   1.000
    H176    H    0.33318   0.46858   0.64848   1.000
    H177    H    0.83318   0.46859   0.64849   1.000
    H178    H    0.38205   0.42272   0.58771   1.000
    H179    H    0.88205   0.42272   0.58772   1.000
    H180    H    0.22341   0.51748   0.61860   1.000
    H181    H    0.72341   0.51748   0.61868   1.000
    H182    H    0.36703   0.46024   0.46540   1.000
    H183    H    0.86703   0.46024   0.46548   1.000
    H184    H    0.30239   0.61943   0.74351   1.000
    H185    H    0.80239   0.61944   0.74352   1.000
    H186    H    0.37942   0.56750   0.82896   1.000
    H187    H    0.87942   0.56750   0.82897   1.000
    H188    H    0.50567   0.79613   0.84006   1.000
    H189    H    0.00000   0.79614   0.84006   1.000
    H190    H    0.42386   0.83929   0.75230   1.000
    H191    H    0.92386   0.83929   0.75230   1.000
    H192    H    0.46214   0.66221   0.94510   1.000
    H193    H    0.96215   0.66222   0.94515   1.000
    H194    H    0.49204   0.58918   0.89553   1.000
    H195    H    0.99204   0.58919   0.89554   1.000
    H196    H    0.10268   0.63185   0.98180   1.000
    H197    H    0.60268   0.63184   0.98182   1.000
    H198    H    0.06088   0.71325   0.00676   1.000
    H199    H    0.56088   0.71325   0.00670   1.000
    H200    H    0.16273   0.80571   0.96422   1.000
    H201    H    0.66273   0.80571   0.96422   1.000
    H202    H    0.19274   0.73949   0.02135   1.000
    H203    H    0.69274   0.73949   0.02135   1.000
    H204    H    0.22154   0.70072   0.81958   1.000
    H205    H    0.72154   0.70073   0.81958   1.000
    H206    H    0.18116   0.78333   0.84226   1.000
    H207    H    0.68115   0.78333   0.84226   1.000
    H208    H    0.08836   0.67835   0.80440   1.000
    H209    H    0.58837   0.67835   0.80440   1.000
    H210    H    0.11780   0.61022   0.86015   1.000
    H211    H    0.61781   0.61022   0.86015   1.000
    H212    H    0.28739   0.82965   0.92190   1.000
    H213    H    0.78738   0.82965   0.92196   1.000
    H214    H    0.31959   0.75326   0.87913   1.000
    H215    H    0.81959   0.75327   0.87910   1.000
    H216    H    0.27416   0.63853   0.00763   1.000
    H217    H    0.77416   0.63853   0.00763   1.000
    H218    H    0.35177   0.62153   0.10772   1.000
    H219    H    0.85177   0.62153   0.10772   1.000
    H220    H    0.48294   0.83148   0.07092   1.000
    H221    H    0.98294   0.83148   0.07092   1.000
    H222    H    0.41046   0.85832   0.97314   1.000
    H223    H    0.91046   0.85833   0.97314   1.000
    C224    C    0.40117   0.17910   0.84268   1.000
    C225    C    0.90117   0.17910   0.84268   1.000
    C226    C    0.34222   0.11004   0.83386   1.000
    C227    C    0.84222   0.11005   0.83386   1.000
    C228    C    0.35094   0.04984   0.78982   1.000
    C229    C    0.85094   0.04984   0.78982   1.000
    C230    C    0.29613   0.98613   0.78242   1.000
    C231    C    0.79613   0.98613   0.78242   1.000
    C232    C    0.30769   0.92172   0.73555   1.000
    C233    C    0.80769   0.92172   0.73555   1.000
    C234    C    0.23196   0.98170   0.81947   1.000
    C235    C    0.73196   0.98170   0.81947   1.000
    C236    C    0.22329   0.04167   0.86359   1.000
    C237    C    0.72329   0.04167   0.86359   1.000
    C238    C    0.27823   0.10591   0.87042   1.000
    C239    C    0.77823   0.10591   0.87042   1.000
    C240    C    0.10755   0.97544   0.90106   1.000
    C241    C    0.60755   0.97544   0.90106   1.000
    C242    C    0.05150   0.98712   0.95190   1.000
    C243    C    0.55151   0.98712   0.95191   1.000
    C244    C    0.48518   0.00938   0.93334   1.000
    C245    C    0.98519   0.00938   0.93334   1.000
    C246    C    0.06578   0.97775   0.01909   1.000
    C247    C    0.56579   0.97775   0.01909   1.000
    C248    C    0.09850   0.15633   0.73416   1.000
    C249    C    0.59850   0.15633   0.73416   1.000
    C250    C    0.14121   0.12836   0.68620   1.000
    C251    C    0.64121   0.12836   0.68620   1.000
    C252    C    0.19808   0.17890   0.65729   1.000
    C253    C    0.69808   0.17891   0.65729   1.000
    C254    C    0.21099   0.25570   0.68063   1.000
    C255    C    0.71099   0.25570   0.68063   1.000
    C256    C    0.16645   0.27959   0.72899   1.000
    C257    C    0.66645   0.27959   0.72899   1.000
    C258    C    0.24163   0.15294   0.60089   1.000
    C259    C    0.74163   0.15294   0.60089   1.000
    C260    C    0.34615   0.19258   0.53079   1.000
    C261    C    0.84615   0.19259   0.53079   1.000
    C262    C    0.41992   0.24345   0.52809   1.000
    C263    C    0.91992   0.24346   0.52809   1.000
    C264    C    0.43636   0.22235   0.64375   1.000
    C265    C    0.93637   0.22236   0.64375   1.000
    C266    C    0.36223   0.17256   0.64661   1.000
    C267    C    0.86223   0.17256   0.64661   1.000
    C268    C    0.04014   0.26580   0.57599   1.000
    C269    C    0.54015   0.26580   0.57599   1.000
    C270    C    0.08549   0.25013   0.51732   1.000
    C271    C    0.58549   0.25013   0.51732   1.000
    C272    C    0.07030   0.18217   0.47938   1.000
    C273    C    0.57031   0.18216   0.47938   1.000
    C274    C    0.11270   0.17207   0.42459   1.000
    C275    C    0.61270   0.17207   0.42459   1.000
    C276    C    0.18639   0.29004   0.44463   1.000
    C277    C    0.68639   0.29004   0.44463   1.000
    C278    C    0.14579   0.30418   0.49933   1.000
    C279    C    0.64579   0.30418   0.49933   1.000
    C280    C    0.34885   0.32091   0.34270   1.000
    C281    C    0.84885   0.32091   0.34270   1.000
    C282    C    0.40778   0.38995   0.33386   1.000
    C283    C    0.90779   0.38996   0.33386   1.000
    C284    C    0.39903   0.45015   0.28982   1.000
    C285    C    0.89904   0.45015   0.28982   1.000
    C286    C    0.45382   0.51389   0.28242   1.000
    C287    C    0.95383   0.51389   0.28242   1.000
    C288    C    0.44225   0.57830   0.23555   1.000
    C289    C    0.94225   0.57830   0.23555   1.000
    C290    C    0.01799   0.51835   0.31948   1.000
    C291    C    0.51800   0.51835   0.31948   1.000
    C292    C    0.02670   0.45836   0.36359   1.000
    C293    C    0.52670   0.45836   0.36359   1.000
    C294    C    0.47178   0.39411   0.37042   1.000
    C295    C    0.97179   0.39411   0.37042   1.000
    C296    C    0.14241   0.52465   0.40110   1.000
    C297    C    0.64242   0.52466   0.40110   1.000
    C298    C    0.19848   0.51295   0.45190   1.000
    C299    C    0.69848   0.51296   0.45193   1.000
    C300    C    0.26478   0.49065   0.43334   1.000
    C301    C    0.76478   0.49065   0.43334   1.000
    C302    C    0.18424   0.52230   0.51911   1.000
    C303    C    0.68424   0.52230   0.51911   1.000
    C304    C    0.15162   0.34361   0.23400   1.000
    C305    C    0.65162   0.34361   0.23409   1.000
    C306    C    0.10893   0.37155   0.18612   1.000
    C307    C    0.60893   0.37155   0.18612   1.000
    C308    C    0.05206   0.32099   0.15717   1.000
    C309    C    0.55206   0.32099   0.15717   1.000
    C310    C    0.03913   0.24421   0.18055   1.000
    C311    C    0.53913   0.24421   0.18055   1.000
    C312    C    0.08364   0.22036   0.22896   1.000
    C313    C    0.58364   0.22036   0.22896   1.000
    C314    C    0.00850   0.34690   0.10074   1.000
    C315    C    0.50851   0.34690   0.10074   1.000
    C316    C    0.40392   0.30717   0.03071   1.000
    C317    C    0.90392   0.30718   0.03071   1.000
    C318    C    0.33015   0.25629   0.02811   1.000
    C319    C    0.83016   0.25629   0.02811   1.000
    C320    C    0.31381   0.27757   0.14374   1.000
    C321    C    0.81381   0.27757   0.14370   1.000
    C322    C    0.38795   0.32738   0.14652   1.000
    C323    C    0.88795   0.32738   0.14653   1.000
    C324    C    0.20995   0.23407   0.07604   1.000
    C325    C    0.70995   0.23407   0.07604   1.000
    C326    C    0.16461   0.24974   0.01735   1.000
    C327    C    0.66461   0.24974   0.01735   1.000
    C328    C    0.17986   0.31766   0.97934   1.000
    C329    C    0.67986   0.31766   0.97934   1.000
    C330    C    0.13746   0.32776   0.92455   1.000
    C331    C    0.63746   0.32776   0.92455   1.000
    C332    C    0.06365   0.20990   0.94466   1.000
    C333    C    0.56365   0.20990   0.94466   1.000
    C334    C    0.10424   0.19575   0.99939   1.000
    C335    C    0.60425   0.19575   0.99939   1.000
    C336    C    0.09883   0.82092   0.15730   1.000
    C337    C    0.59883   0.82092   0.15730   1.000
    C338    C    0.15778   0.88997   0.16612   1.000
    C339    C    0.65778   0.88997   0.16612   1.000
    C340    C    0.14906   0.95017   0.21010   1.000
    C341    C    0.64907   0.95017   0.21015   1.000
    C342    C    0.20387   0.01388   0.21756   1.000
    C343    C    0.70387   0.01388   0.21756   1.000
    C344    C    0.19232   0.07829   0.26443   1.000
    C345    C    0.69232   0.07829   0.26443   1.000
    C346    C    0.26805   0.01832   0.18050   1.000
    C347    C    0.76805   0.01832   0.18050   1.000
    C348    C    0.27671   0.95834   0.13639   1.000
    C349    C    0.77672   0.95834   0.13639   1.000
    C350    C    0.22177   0.89410   0.12955   1.000
    C351    C    0.72177   0.89411   0.12955   1.000
    C352    C    0.39245   0.02457   0.09891   1.000
    C353    C    0.89246   0.02457   0.09891   1.000
    C354    C    0.44849   0.01289   0.04807   1.000
    C355    C    0.94850   0.01289   0.04807   1.000
    C356    C    0.01481   0.99063   0.06664   1.000
    C357    C    0.51482   0.99063   0.06664   1.000
    C358    C    0.43421   0.02227   0.98088   1.000
    C359    C    0.93422   0.02226   0.98080   1.000
    C360    C    0.40150   0.84368   0.26581   1.000
    C361    C    0.90150   0.84368   0.26581   1.000
    C362    C    0.35879   0.87166   0.31372   1.000
    C363    C    0.85879   0.87166   0.31372   1.000
    C364    C    0.30192   0.82111   0.34268   1.000
    C365    C    0.80192   0.82111   0.34268   1.000
    C366    C    0.28901   0.74431   0.31930   1.000
    C367    C    0.78901   0.74431   0.31935   1.000
    C368    C    0.33355   0.72042   0.27098   1.000
    C369    C    0.83355   0.72042   0.27098   1.000
    C370    C    0.25838   0.84707   0.39900   1.000
    C371    C    0.75838   0.84707   0.39900   1.000
    C372    C    0.15385   0.80743   0.46919   1.000
    C373    C    0.65385   0.80743   0.46919   1.000
    C374    C    0.08008   0.75656   0.47188   1.000
    C375    C    0.58009   0.75656   0.47188   1.000
    C376    C    0.06363   0.77767   0.35620   1.000
    C377    C    0.56364   0.77767   0.35623   1.000
    C378    C    0.13778   0.82746   0.35330   1.000
    C379    C    0.63778   0.82746   0.35337   1.000
    C380    C    0.45985   0.73422   0.42399   1.000
    C381    C    0.95986   0.73422   0.42399   1.000
    C382    C    0.41452   0.74988   0.48266   1.000
    C383    C    0.91452   0.74989   0.48266   1.000
    C384    C    0.42970   0.81785   0.52060   1.000
    C385    C    0.92970   0.81785   0.52060   1.000
    C386    C    0.38730   0.82794   0.57539   1.000
    C387    C    0.88730   0.82794   0.57530   1.000
    C388    C    0.31361   0.70998   0.55535   1.000
    C389    C    0.81361   0.70998   0.55535   1.000
    C390    C    0.35421   0.69584   0.50060   1.000
    C391    C    0.85421   0.69584   0.50060   1.000
    C392    C    0.15116   0.67911   0.65720   1.000
    C393    C    0.65116   0.67911   0.65720   1.000
    C394    C    0.09222   0.61006   0.66612   1.000
    C395    C    0.59222   0.61006   0.66612   1.000
    C396    C    0.10096   0.54986   0.71016   1.000
    C397    C    0.60097   0.54986   0.71016   1.000
    C398    C    0.04617   0.48612   0.71756   1.000
    C399    C    0.54618   0.48612   0.71756   1.000
    C400    C    0.05775   0.42171   0.76443   1.000
    C401    C    0.55776   0.42171   0.76443   1.000
    C402    C    0.48200   0.48166   0.68050   1.000
    C403    C    0.98201   0.48167   0.68050   1.000
    C404    C    0.47330   0.54166   0.63639   1.000
    C405    C    0.97330   0.54166   0.63639   1.000
    C406    C    0.02822   0.60590   0.62955   1.000
    C407    C    0.52822   0.60590   0.62955   1.000
    C408    C    0.35758   0.47536   0.59887   1.000
    C409    C    0.85759   0.47536   0.59888   1.000
    C410    C    0.30152   0.48706   0.54805   1.000
    C411    C    0.80152   0.48707   0.54805   1.000
    C412    C    0.23522   0.50937   0.56664   1.000
    C413    C    0.73522   0.50937   0.56664   1.000
    C414    C    0.31576   0.47771   0.48087   1.000
    C415    C    0.81576   0.47771   0.48087   1.000
    C416    C    0.34839   0.65640   0.76589   1.000
    C417    C    0.84839   0.65640   0.76589   1.000
    C418    C    0.39108   0.62845   0.81385   1.000
    C419    C    0.89108   0.62846   0.81385   1.000
    C420    C    0.44794   0.67902   0.84281   1.000
    C421    C    0.94795   0.67902   0.84281   1.000
    C422    C    0.46088   0.75580   0.81943   1.000
    C423    C    0.96088   0.75580   0.81943   1.000
    C424    C    0.41636   0.77965   0.77100   1.000
    C425    C    0.91636   0.77966   0.77102   1.000
    C426    C    0.49149   0.65310   0.89924   1.000
    C427    C    0.99150   0.65311   0.89924   1.000
    C428    C    0.09608   0.69283   0.96926   1.000
    C429    C    0.59609   0.69283   0.96926   1.000
    C430    C    0.16985   0.74371   0.97180   1.000
    C431    C    0.66985   0.74371   0.97187   1.000
    C432    C    0.18619   0.72243   0.85623   1.000
    C433    C    0.68619   0.72244   0.85623   1.000
    C434    C    0.11205   0.67262   0.85345   1.000
    C435    C    0.61205   0.67262   0.85345   1.000
    C436    C    0.29006   0.76593   0.92393   1.000
    C437    C    0.79005   0.76593   0.92394   1.000
    C438    C    0.33540   0.75027   0.98262   1.000
    C439    C    0.83540   0.75027   0.98262   1.000
    C440    C    0.32015   0.68235   0.02063   1.000
    C441    C    0.82015   0.68235   0.02063   1.000
    C442    C    0.36255   0.67225   0.07542   1.000
    C443    C    0.86255   0.67225   0.07542   1.000
    C444    C    0.43635   0.79011   0.05531   1.000
    C445    C    0.93635   0.79011   0.05531   1.000
    C446    C    0.39576   0.80426   0.00000   1.000
    C447    C    0.89576   0.80426   0.00000   1.000
    N448    N    0.10987   0.23122   0.75500   1.000
    N449    N    0.60987   0.23122   0.75500   1.000
    N450    N    0.31400   0.19743   0.59628   1.000
    N451    N    0.81400   0.19744   0.59628   1.000
    N452    N    0.46871   0.21889   0.57806   1.000
    N453    N    0.96872   0.21889   0.57806   1.000
    N454    N    0.16978   0.22567   0.40677   1.000
    N455    N    0.66978   0.22567   0.40677   1.000
    N456    N    0.14021   0.26875   0.25500   1.000
    N457    N    0.64021   0.26875   0.25500   1.000
    N458    N    0.43613   0.30243   0.09620   1.000
    N459    N    0.93613   0.30244   0.09620   1.000
    N460    N    0.28141   0.28094   0.07806   1.000
    N461    N    0.78141   0.28094   0.07806   1.000
    N462    N    0.08032   0.27422   0.90676   1.000
    N463    N    0.58032   0.27422   0.90676   1.000
    N464    N    0.39013   0.76879   0.24494   1.000
    N465    N    0.89013   0.76879   0.24490   1.000
    N466    N    0.18600   0.80259   0.40369   1.000
    N467    N    0.68601   0.80258   0.40369   1.000
    N468    N    0.03129   0.78113   0.42192   1.000
    N469    N    0.53129   0.78113   0.42192   1.000
    N470    N    0.33023   0.77434   0.59321   1.000
    N471    N    0.83023   0.77434   0.59321   1.000
    N472    N    0.35979   0.73126   0.74497   1.000
    N473    N    0.85979   0.73126   0.74497   1.000
    N474    N    0.06387   0.69757   0.90377   1.000
    N475    N    0.56388   0.69757   0.90377   1.000
    N476    N    0.21859   0.71907   0.92191   1.000
    N477    N    0.71859   0.71907   0.92190   1.000
    N478    N    0.41969   0.72579   0.09321   1.000
    N479    N    0.91969   0.72579   0.09321   1.000
    O480    O    0.45995   0.17644   0.80813   1.000
    O481    O    0.95995   0.17644   0.80813   1.000
    O482    O    0.39317   0.23325   0.88099   1.000
    O483    O    0.89318   0.23325   0.88099   1.000
    O484    O    0.36531   0.92655   0.70308   1.000
    O485    O    0.86532   0.92655   0.70308   1.000
    O486    O    0.25566   0.86266   0.73326   1.000
    O487    O    0.75566   0.86266   0.73326   1.000
    O488    O    0.16309   0.04309   0.90258   1.000
    O489    O    0.66309   0.04309   0.90258   1.000
    O490    O    0.29006   0.32354   0.30814   1.000
    O491    O    0.79007   0.32355   0.30814   1.000
    O492    O    0.35686   0.26675   0.38101   1.000
    O493    O    0.85686   0.26675   0.38101   1.000
    O494    O    0.38463   0.57347   0.20305   1.000
    O495    O    0.88463   0.57347   0.20300   1.000
    O496    O    0.49429   0.63736   0.23326   1.000
    O497    O    0.99429   0.63736   0.23326   1.000
    O498    O    0.08691   0.45696   0.40257   1.000
    O499    O    0.58692   0.45696   0.40250   1.000
    O500    O    0.04005   0.82357   0.19185   1.000
    O501    O    0.54005   0.82357   0.19185   1.000
    O502    O    0.10683   0.76676   0.11899   1.000
    O503    O    0.60683   0.76676   0.11899   1.000
    O504    O    0.13469   0.07346   0.29690   1.000
    O505    O    0.63469   0.07346   0.29690   1.000
    O506    O    0.24435   0.13735   0.26672   1.000
    O507    O    0.74435   0.13735   0.26672   1.000
    O508    O    0.33691   0.95692   0.09740   1.000
    O509    O    0.83692   0.95692   0.09740   1.000
    O510    O    0.20994   0.67647   0.69184   1.000
    O511    O    0.70994   0.67647   0.69184   1.000
    O512    O    0.14314   0.73326   0.61896   1.000
    O513    O    0.64314   0.73326   0.61890   1.000
    O514    O    0.11538   0.42654   0.79692   1.000
    O515    O    0.61538   0.42655   0.79692   1.000
    O516    O    0.00572   0.36265   0.76672   1.000
    O517    O    0.50572   0.36265   0.76672   1.000
    O518    O    0.41308   0.54306   0.59740   1.000
    O519    O    0.91309   0.54306   0.59740   1.000
loop_
    _geom_bond_atom_site_label_1
    _geom_bond_atom_site_label_2
    _geom_bond_distance
    _geom_bond_site_symmetry_2
    _ccdc_geom_bond_type
    C446   C444      1.39556      .   S
    C446   H222      1.08347  1_554   S
    C446   C438      1.39716  1_554   S
    C447   C445      1.39559      .   S
    C447   H223      1.08347  1_554   S
    C447   C439      1.39714  1_554   S
    H199   C429      1.09707  1_554   S
    H198   C428      1.09789  1_554   S
    H216   C440      1.08952      .   S
    H217   C441      1.08953      .   S
    C327   C325      1.50826      .   S
    C327   C329      1.40074  1_554   S
    C327   C335      1.40018  1_554   S
    C326   C324      1.50825      .   S
    C326   C328      1.40071  1_554   S
    C326   C334      1.40020  1_554   S
    H88    C316      1.11277      .   S
    H89    C317      1.11251      .   S
    C246   H20       1.09140      .   S
    C246   C356      1.39578      .   S
    C246   C242      1.40261  1_554   S
    C247   H21       1.09140      .   S
    C247   C357      1.39578      .   S
    C247   C243      1.40242  1_554   S
    C440   C442      1.39019      .   S
    C440   C438      1.40074  1_554   S
    C441   C443      1.39022      .   S
    C441   C439      1.40072  1_554   S
    H203   C431      1.09732  1_554   S
    H202   C430      1.09861  1_554   S
    H115   C335      1.08942  1_554   S
    H114   C334      1.08942  1_554   S
    C318   C316      1.51988      .   S
    C318   H92       1.11370      .   S
    C318   N460      1.46732      .   S
    C318   H94       1.09748  1_554   S
    C319   C317      1.51991      .   S
    C319   H93       1.11369      .   S
    C319   N461      1.46730      .   S
    C319   H95       1.09750  1_554   S
    C317   N459      1.46517      .   S
    C317   H91       1.09775  1_554   S
    C316   N458      1.46516      .   S
    C316   H90       1.09779  1_554   S
    C354   C357      1.40188  1_545   S
    C354   C352      1.50374      .   S
    C354   C358      1.40262  1_554   S
    C355   C356      1.40158  1_645   S
    C355   C353      1.50378      .   S
    C355   C359      1.40419  1_554   S
    H84    C314      1.10363      .   S
    H85    C315      1.10365      .   S
    C444   H220      1.08758      .   S
    C444   N478      1.35196      .   S
    C445   H221      1.08758      .   S
    C445   N479      1.35197      .   S
    C357   H127      1.09158      .   S
    C356   H126      1.09159      .   S
    C442   N478      1.35319      .   S
    C442   H218      1.09096      .   S
    C443   N479      1.35317      .   S
    C443   H219      1.09095      .   S
    C324   H104      1.11430      .   S
    C324   N460      1.45392      .   S
    C324   H106      1.10184      .   S
    C325   H105      1.11430      .   S
    C325   N461      1.45396      .   S
    C325   H107      1.10183      .   S
    N460   C320      1.46754      .   S
    N461   C321      1.46679      .   S
    H125   C353      1.10377      .   S
    H124   C352      1.10379      .   S
    N478   Zn4       2.04652      .   S
    N479   Zn5       2.04657      .   S
    H120   C350      1.08864      .   S
    H121   C351      1.08866      .   S
    N459   C314      1.45361  1_655   S
    N459   C323      1.46768      .   S
    N458   C315      1.45384      .   S
    N458   C322      1.46755      .   S
    O509   C353      1.44414  1_565   S
    O509   C349      1.37684      .   S
    O508   C352      1.44412  1_565   S
    O508   C348      1.37682      .   S
    C353   H123      1.10354      .   S
    C352   H122      1.10356      .   S
    C314   H86       1.11264      .   S
    C314   C308      1.51045      .   S
    C315   H87       1.11265      .   S
    C315   C309      1.51039      .   S
    O503   C337      1.24514      .   S
    O502   C336      1.24518      .   S
    C351   C349      1.40274      .   S
    C351   C339      1.39810      .   S
    C350   C348      1.40276      .   S
    C350   C338      1.39812      .   S
    C349   C347      1.39969  1_565   S
    C348   C346      1.39969  1_565   S
    H103   C323      1.11185      .   S
    H102   C322      1.11179      .   S
    C321   C323      1.51767      .   S
    C321   H99       1.11116      .   S
    C321   H97       1.09241      .   S
    C320   C322      1.51761      .   S
    C320   H98       1.11104      .   S
    C320   H96       1.09721      .   S
    C322   H100      1.09901      .   S
    C323   H101      1.09901      .   S
    C309   C311      1.39984      .   S
    C309   C307      1.39979      .   S
    C308   C310      1.39983      .   S
    C308   C306      1.39980      .   S
    C337   C339      1.50985      .   S
    C337   O501      1.30804      .   S
    C336   C338      1.50985      .   S
    C336   O500      1.30804      .   S
    H80    C310      1.08954  1_655   S
    H81    C311      1.08953      .   S
    C339   C341      1.40185      .   S
    C338   C340      1.40120      .   S
    H79    C307      1.09067      .   S
    H78    C306      1.09067      .   S
    C347   H119      1.08719      .   S
    C347   C343      1.40592      .   S
    C346   H118      1.08719      .   S
    C346   C342      1.40592      .   S
    C311   C313      1.38841      .   S
    C310   C312      1.38842      .   S
    Zn4    O501      1.99002      .   S
    Zn4    O496      1.96604      .   S
    Zn4    N464      2.13128      .   S
    Zn5    O500      1.98988  1_655   S
    Zn5    O497      1.96604      .   S
    Zn5    N465      2.13084      .   S
    C307   C305      1.38970      .   S
    C306   C304      1.38845      .   S
    O495   C289      1.25341      .   S
    O494   C288      1.25285      .   S
    C340   C342      1.39625  1_565   S
    C340   H116      1.08717      .   S
    C341   C343      1.39614  1_565   S
    C341   H117      1.08662      .   S
    C342   C344      1.50678      .   S
    C343   C345      1.50678      .   S
    C313   H83       1.09082      .   S
    C313   N457      1.35307      .   S
    C312   H82       1.09075      .   S
    C312   N456      1.35307      .   S
    O496   C288      1.30180      .   S
    O497   C289      1.30178      .   S
    C304   N456      1.35257      .   S
    C304   H76       1.09048      .   S
    C305   N457      1.35200      .   S
    C305   H77       1.08973      .   S
    C289   C287      1.50684      .   S
    C288   C286      1.50687      .   S
    H131   C361      1.08978      .   S
    H130   C360      1.08978      .   S
    N465   C361      1.35238      .   S
    N465   C369      1.35346      .   S
    N464   C360      1.35209      .   S
    N464   C368      1.35310      .   S
    H137   C369      1.09077      .   S
    H136   C368      1.09075      .   S
    N456   Zn2       2.13057      .   S
    N457   Zn3       2.13062      .   S
    H63    C285      1.08666      .   S
    H62    C284      1.08664      .   S
    C344   O506      1.30174      .   S
    C344   O504      1.25281      .   S
    C345   O507      1.30174      .   S
    C345   O505      1.25278      .   S
    C360   C362      1.38962      .   S
    C361   C363      1.38958      .   S
    O506   Zn2       1.96609      .   S
    O507   Zn3       1.96609      .   S
    C368   C366      1.38792      .   S
    C369   C367      1.38856      .   S
    C287   C285      1.39632      .   S
    C287   C290      1.40559  1_655   S
    C286   C284      1.39635      .   S
    C286   C291      1.40584      .   S
    C285   C283      1.40194      .   S
    C284   C282      1.40194      .   S
    H154   C378      1.09777      .   S
    H155   C379      1.09902      .   S
    O491   Zn3       1.98988      .   S
    O491   C281      1.30796      .   S
    O490   Zn2       1.98987      .   S
    O490   C280      1.30799      .   S
    H64    C290      1.08720      .   S
    H65    C291      1.08718      .   S
    C363   H133      1.09069      .   S
    C363   C365      1.39986      .   S
    C362   H132      1.09067      .   S
    C362   C364      1.39982      .   S
    Zn3    N455      2.04620      .   S
    Zn2    N454      2.04616      .   S
    C366   H134      1.08990      .   S
    C366   C364      1.40012      .   S
    C367   H135      1.08953      .   S
    C367   C365      1.39982      .   S
    C291   C293      1.39994      .   S
    C290   C292      1.39994      .   S
    H151   C377      1.09728      .   S
    H150   C376      1.09687      .   S
    C283   C281      1.50978      .   S
    C283   C295      1.39797      .   S
    C282   C280      1.50974      .   S
    C282   C294      1.39796      .   S
    H152   C376      1.11086      .   S
    H153   C377      1.11100      .   S
    C365   C371      1.50916      .   S
    C364   C370      1.50919      .   S
    C281   O493      1.24517      .   S
    C280   O492      1.24514      .   S
    H68    C296      1.10340      .   S
    H69    C297      1.10339      .   S
    C378   C376      1.51762      .   S
    C378   H156      1.11195      .   S
    C378   N466      1.46849      .   S
    C379   C377      1.51759      .   S
    C379   H157      1.11178      .   S
    C379   N467      1.46752      .   S
    C376   N468      1.46818      .   S
    C377   N469      1.46762      .   S
    C292   C295      1.40251  1_455   S
    C292   O498      1.37673      .   S
    C293   C294      1.40269      .   S
    C293   O499      1.37588      .   S
    C295   H67       1.08876      .   S
    C294   H66       1.08866      .   S
    H160   C380      1.10189      .   S
    H161   C381      1.10186      .   S
    H73    C301      1.09167      .   S
    H72    C300      1.09167      .   S
    H57    C275      1.09093      .   S
    H56    C274      1.09090      .   S
    H140   C370      1.11255      .   S
    H141   C371      1.11254      .   S
    C370   N466      1.45398      .   S
    C370   H138      1.10510      .   S
    C371   N467      1.45396      .   S
    C371   H139      1.10510      .   S
    C297   O499      1.44431      .   S
    C297   H71       1.10381      .   S
    C297   C299      1.50382      .   S
    C296   O498      1.44436      .   S
    C296   H70       1.10381      .   S
    C296   C298      1.50342      .   S
    N466   C372      1.46526      .   S
    N467   C373      1.46529      .   S
    N454   C274      1.35316      .   S
    N454   C276      1.35198      .   S
    N455   C275      1.35317      .   S
    N455   C277      1.35199      .   S
    H58    C276      1.15405      .   S
    N469   C380      1.45397      .   S
    N469   C375      1.46735      .   S
    N468   C381      1.45375  1_455   S
    N468   C374      1.46734      .   S
    H159   C381      1.11432      .   S
    H158   C380      1.11430      .   S
    C381   C383      1.50815      .   S
    C380   C382      1.50813      .   S
    C274   C272      1.39032      .   S
    C275   C273      1.39028      .   S
    H59    C277      1.08760      .   S
    C300   C298      1.40175      .   S
    C300   C414      1.39570      .   S
    C301   C299      1.40191      .   S
    C301   C415      1.39570      .   S
    C277   C279      1.38586      .   S
    C276   C278      1.38587      .   S
    C298   C302      1.40293      .   S
    C299   C303      1.40233      .   S
    H147   C375      1.11384      .   S
    H146   C374      1.11384      .   S
    H182   C414      1.09183      .   S
    H183   C415      1.09137      .   S
    C372   C374      1.51995      .   S
    C372   H142      1.11252      .   S
    C372   H144      1.09766      .   S
    C373   C375      1.51994      .   S
    C373   H143      1.11218      .   S
    C373   H145      1.09764      .   S
    C375   H149      1.09722      .   S
    C374   H148      1.09721      .   S
    H169   C391      1.08939      .   S
    H168   C390      1.08897      .   S
    H40    C262      1.09741      .   S
    H41    C263      1.09722      .   S
    C272   H54       1.08948      .   S
    C272   C270      1.40051      .   S
    C273   H55       1.08948      .   S
    C273   C271      1.40052      .   S
    C414   C410      1.40233      .   S
    C415   C411      1.40233      .   S
    C383   C391      1.39994      .   S
    C383   C385      1.40048      .   S
    C382   C390      1.39993      .   S
    C382   C384      1.40048      .   S
    H37    C261      1.10185      .   S
    H36    C260      1.09762      .   S
    C278   C270      1.40019      .   S
    C278   H60       1.08951      .   S
    C279   C271      1.40018      .   S
    C279   H61       1.08910      .   S
    C390   C388      1.38665      .   S
    C391   C389      1.38669      .   S
    H162   C384      1.08949      .   S
    H163   C385      1.08950      .   S
    C271   C269      1.50815      .   S
    C270   C268      1.50821      .   S
    H34    C260      1.11256      .   S
    H35    C261      1.11257      .   S
    C303   H75       1.09136      .   S
    C303   C413      1.39570      .   S
    C302   H74       1.09136      .   S
    C302   C412      1.39570      .   S
    C384   C386      1.39029      .   S
    C385   C387      1.38887      .   S
    C262   C260      1.51995      .   S
    C262   H38       1.11384      .   S
    C262   N452      1.46748      .   S
    C263   C261      1.51996      .   S
    C263   H39       1.11386      .   S
    C263   N453      1.46747      .   S
    C260   N450      1.46511      .   S
    C261   N451      1.46513      .   S
    C410   C412      1.40191      .   S
    C410   C408      1.50369      .   S
    C411   C413      1.40192      .   S
    C411   C409      1.50384      .   S
    H31    C259      1.10371      .   S
    H30    C258      1.10370      .   S
    C388   H166      1.08755      .   S
    C388   N470      1.35197      .   S
    C389   H167      1.08755      .   S
    C389   N471      1.35195      .   S
    C412   H180      1.09010      .   S
    C413   H181      1.09167      .   S
    C387   N471      1.35364      .   S
    C387   H165      1.09196      .   S
    C386   N470      1.35317      .   S
    C386   H164      1.09089      .   S
    C269   H51       1.11430      .   S
    C269   N452      1.45398      .   S
    C269   H53       1.10186      .   S
    C268   H50       1.11428      .   S
    C268   N453      1.45375  1_455   S
    C268   H52       1.10186      .   S
    N453   C265      1.46765      .   S
    N452   C264      1.46765      .   S
    H178   C408      1.10379      .   S
    H179   C409      1.10380      .   S
    N470   Zn6       2.04612      .   S
    N471   Zn7       2.04610      .   S
    H174   C406      1.08867      .   S
    H175   C407      1.08867      .   S
    N450   C258      1.45388      .   S
    N450   C266      1.46763      .   S
    N451   C259      1.45387      .   S
    N451   C267      1.46765      .   S
    O519   C409      1.44438      .   S
    O519   C405      1.37684      .   S
    O518   C408      1.44434      .   S
    O518   C404      1.37682      .   S
    C408   H176      1.10340      .   S
    C409   H177      1.10341      .   S
    C259   H33       1.11267      .   S
    C259   C253      1.51043      .   S
    C258   H32       1.11266      .   S
    C258   C252      1.51044      .   S
    O513   C393      1.24500      .   S
    O512   C392      1.24423      .   S
    C406   C405      1.40253  1_455   S
    C406   C394      1.39807      .   S
    C407   C404      1.40271      .   S
    C407   C395      1.39807      .   S
    C404   C402      1.39997      .   S
    C405   C403      1.39995      .   S
    H48    C266      1.11179      .   S
    H49    C267      1.11179      .   S
    C264   C266      1.51758      .   S
    C264   H44       1.11100      .   S
    C264   H42       1.09713      .   S
    C265   C267      1.51762      .   S
    C265   H45       1.11097      .   S
    C265   H43       1.09710      .   S
    C267   H47       1.09775      .   S
    C266   H46       1.09904      .   S
    C392   C394      1.50998      .   S
    C392   O510      1.30887      .   S
    C393   C395      1.50997      .   S
    C393   O511      1.30886      .   S
    C252   C254      1.39986      .   S
    C252   C250      1.39946      .   S
    C253   C255      1.39987      .   S
    C253   C251      1.39946      .   S
    H26    C254      1.08957      .   S
    H27    C255      1.08956      .   S
    C395   C397      1.40195      .   S
    C394   C396      1.40199      .   S
    H24    C250      1.09045      .   S
    H25    C251      1.09045      .   S
    C403   H173      1.08717      .   S
    C403   C398      1.40561  1_655   S
    C402   H172      1.08719      .   S
    C402   C399      1.40585      .   S
    C254   C256      1.38845      .   S
    C255   C257      1.38843      .   S
    Zn6    O510      1.98996      .   S
    Zn6    O486      1.96611      .   S
    Zn6    N472      2.13038      .   S
    Zn7    O511      1.98993      .   S
    Zn7    O487      1.96610      .   S
    Zn7    N473      2.13033      .   S
    C250   C248      1.39031      .   S
    C251   C249      1.39029      .   S
    O484   C232      1.25282      .   S
    O485   C233      1.25286      .   S
    C397   C399      1.39635      .   S
    C397   H171      1.08663      .   S
    C396   C398      1.39633      .   S
    C396   H170      1.08653      .   S
    C399   C401      1.50686      .   S
    C398   C400      1.50682      .   S
    C257   H29       1.09076      .   S
    C257   N449      1.35291      .   S
    C256   H28       1.09076      .   S
    C256   N448      1.35293      .   S
    O487   C233      1.30174      .   S
    O486   C232      1.30173      .   S
    C249   N449      1.35190      .   S
    C249   H23       1.08972      .   S
    C248   N448      1.35190      .   S
    C248   H22       1.08973      .   S
    C233   C231      1.50679      .   S
    C232   C230      1.50679      .   S
    H184   C416      1.08980      .   S
    H185   C417      1.08972      .   S
    N472   C416      1.35208      .   S
    N472   C424      1.35298      .   S
    N473   C417      1.35206      .   S
    N473   C425      1.35314      .   S
    H190   C424      1.09069      .   S
    H191   C425      1.09080      .   S
    N449   Zn1       2.13083      .   S
    N448   Zn0       2.13090      .   S
    H8     C228      1.09539      .   S
    H9     C229      1.08662      .   S
    C400   O516      1.30178      .   S
    C400   O514      1.25282      .   S
    C401   O517      1.30178      .   S
    C401   O515      1.25279      .   S
    C417   C419      1.38961      .   S
    C416   C418      1.38959      .   S
    O517   Zn1       1.96545      .   S
    O516   Zn0       1.96543      .   S
    C424   C422      1.38871      .   S
    C425   C423      1.38846      .   S
    C230   C228      1.39611  1_565   S
    C230   C234      1.40583      .   S
    C231   C229      1.39611  1_565   S
    C231   C235      1.40583      .   S
    C229   C227      1.40198      .   S
    C228   C226      1.40198      .   S
    H208   C434      1.09900      .   S
    H209   C435      1.09901      .   S
    O480   Zn1       1.98998      .   S
    O480   C224      1.30805      .   S
    O481   Zn0       1.98984  1_655   S
    O481   C225      1.30805      .   S
    H11    C235      1.08717      .   S
    H10    C234      1.08717      .   S
    C418   H186      1.09068      .   S
    C418   C420      1.39985      .   S
    C419   H187      1.09073      .   S
    C419   C421      1.39987      .   S
    Zn1    N463      2.04736      .   S
    Zn0    N462      2.04742      .   S
    C422   H188      1.08952      .   S
    C422   C420      1.39987      .   S
    C423   H189      1.02157  1_655   S
    C423   C421      1.39983      .   S
    C235   C237      1.39982  1_565   S
    C234   C236      1.39982  1_565   S
    H205   C433      1.09719      .   S
    H204   C432      1.09720      .   S
    C227   C225      1.50988      .   S
    C227   C239      1.39801      .   S
    C226   C224      1.50987      .   S
    C226   C238      1.39801      .   S
    H206   C432      1.11100      .   S
    H207   C433      1.11099      .   S
    C225   O483      1.24514      .   S
    C224   O482      1.24514      .   S
    C420   C426      1.51042      .   S
    C421   C427      1.51046      .   S
    H14    C240      1.10336      .   S
    H15    C241      1.10338      .   S
    C435   C433      1.51762      .   S
    C435   H211      1.11178      .   S
    C435   N475      1.46754      .   S
    C434   C432      1.51763      .   S
    C434   H210      1.11179      .   S
    C434   N474      1.46754      .   S
    C432   N476      1.46754      .   S
    C433   N477      1.46734      .   S
    C236   C238      1.40275      .   S
    C236   O488      1.37683      .   S
    C237   C239      1.40275      .   S
    C237   O489      1.37681      .   S
    C238   H12       1.08866      .   S
    C239   H13       1.08865      .   S
    H215   C437      1.10249      .   S
    H214   C436      1.10183      .   S
    H19    C245      1.09159      .   S
    H18    C244      1.09157      .   S
    H111   C331      1.09093      .   S
    H110   C330      1.09093      .   S
    H194   C426      1.11266      .   S
    H195   C427      1.11264      .   S
    C427   N474      1.45358  1_655   S
    C427   H193      1.10364      .   S
    C426   N475      1.45382      .   S
    C426   H192      1.10280      .   S
    C240   O488      1.44415  1_565   S
    C240   H16       1.10383      .   S
    C240   C242      1.50378      .   S
    C241   O489      1.44413  1_565   S
    C241   H17       1.10383      .   S
    C241   C243      1.50387      .   S
    N474   C428      1.46517      .   S
    N475   C429      1.46517      .   S
    N462   C330      1.35321      .   S
    N462   C332      1.35195      .   S
    N463   C331      1.35319      .   S
    N463   C333      1.35195      .   S
    N477   C437      1.45395      .   S
    N477   C431      1.46756      .   S
    H212   C436      1.11435      .   S
    N476   C436      1.45396      .   S
    N476   C430      1.46645      .   S
    H213   C437      1.11431      .   S
    C436   C438      1.50826      .   S
    C437   C439      1.50812      .   S
    C330   C328      1.39018      .   S
    C331   C329      1.39021      .   S
    H113   C333      1.08789      .   S
    H112   C332      1.08753      .   S
    C245   C242      1.40153  1_645   S
    C245   C359      1.39452      .   S
    C244   C243      1.40190  1_545   S
    C244   C358      1.39563      .   S
    C332   C334      1.38612      .   S
    C333   C335      1.38615      .   S
    H200   C430      1.11366      .   S
    H201   C431      1.11387      .   S
    H128   C358      1.09135      .   S
    H129   C359      1.09088      .   S
    C428   C430      1.51989      .   S
    C428   H196      1.11245      .   S
    C429   C431      1.51991      .   S
    C429   H197      1.11255      .   S
    C329   H109      1.08933      .   S
    C328   H108      1.08949      .   S
