# CIF file generated by openbabel 2.4.90, see http://openbabel.sf.net
data_I
_chemical_name_common ''
_cell_length_a 7.6955
_cell_length_b 14.667
_cell_length_c 15.813
_cell_angle_alpha 90.02
_cell_angle_beta 90.05
_cell_angle_gamma 92.045
_space_group_name_H-M_alt 'P 1'
_space_group_name_Hall 'P 1'
loop_
    _symmetry_equiv_pos_as_xyz
    x,y,z
loop_
    _atom_site_label
    _atom_site_type_symbol
    _atom_site_fract_x
    _atom_site_fract_y
    _atom_site_fract_z
    _atom_site_occupancy
    H0      H    0.89567   0.61274   0.80741   1.000
    H1      H    0.87661   0.78286   0.82535   1.000
    H2      H    0.63804   0.73178   0.06743   1.000
    H3      H    0.56839   0.63615   0.15674   1.000
    H4      H    0.58336   0.35470   0.22546   1.000
    H5      H    0.72544   0.32423   0.08459   1.000
    H6      H    0.60411   0.88717   0.30713   1.000
    H7      H    0.62373   0.71713   0.32517   1.000
    H8      H    0.86384   0.76876   0.56703   1.000
    H9      H    0.93239   0.86440   0.65649   1.000
    H10     H    0.91742   0.14593   0.72511   1.000
    H11     H    0.77445   0.17612   0.58434   1.000
    H12     H    0.10432   0.38727   0.19257   1.000
    H13     H    0.12338   0.21715   0.17462   1.000
    H14     H    0.36195   0.26822   0.93255   1.000
    H15     H    0.43160   0.36385   0.84325   1.000
    H16     H    0.41663   0.64529   0.77452   1.000
    H17     H    0.27456   0.67577   0.91539   1.000
    H18     H    0.39588   0.11283   0.69285   1.000
    H19     H    0.37627   0.28287   0.67482   1.000
    H20     H    0.13615   0.23124   0.43296   1.000
    H21     H    0.06760   0.13561   0.34349   1.000
    H22     H    0.08256   0.85407   0.27487   1.000
    H23     H    0.22552   0.82388   0.41565   1.000
    C24     C    0.84379   0.64237   0.86480   1.000
    C25     C    0.82843   0.73601   0.87430   1.000
    C26     C    0.75459   0.76963   0.94845   1.000
    C27     C    0.69864   0.70721   0.01009   1.000
    C28     C    0.72529   0.61454   0.99930   1.000
    C29     C    0.68201   0.54646   0.06430   1.000
    C30     C    0.60362   0.56712   0.14087   1.000
    C31     C    0.56584   0.49845   0.19956   1.000
    C32     C    0.61153   0.40950   0.18049   1.000
    C33     C    0.68917   0.39221   0.10330   1.000
    C34     C    0.65641   0.85768   0.36451   1.000
    C35     C    0.67219   0.76407   0.37405   1.000
    C36     C    0.74665   0.73062   0.44816   1.000
    C37     C    0.80270   0.79317   0.50973   1.000
    C38     C    0.77545   0.88578   0.49896   1.000
    C39     C    0.81857   0.95395   0.56399   1.000
    C40     C    0.89715   0.93340   0.64058   1.000
    C41     C    0.93491   0.00000   0.69931   1.000
    C42     C    0.88916   0.09105   0.68019   1.000
    C43     C    0.81106   0.10820   0.60301   1.000
    C44     C    0.15622   0.35763   0.13519   1.000
    C45     C    0.17157   0.26399   0.12568   1.000
    C46     C    0.24539   0.23038   0.05152   1.000
    C47     C    0.30136   0.29279   0.98989   1.000
    C48     C    0.27471   0.38546   0.00000   1.000
    C49     C    0.31797   0.45355   0.93568   1.000
    C50     C    0.39637   0.43288   0.85911   1.000
    C51     C    0.43417   0.50155   0.80042   1.000
    C52     C    0.38846   0.59050   0.81949   1.000
    C53     C    0.31083   0.60779   0.89668   1.000
    C54     C    0.34358   0.14232   0.63547   1.000
    C55     C    0.32781   0.23593   0.62593   1.000
    C56     C    0.25334   0.26938   0.55182   1.000
    C57     C    0.19729   0.20683   0.49026   1.000
    C58     C    0.22454   0.11422   0.50103   1.000
    C59     C    0.18141   0.04605   0.43600   1.000
    C60     C    0.10283   0.06660   0.35940   1.000
    C61     C    0.06507   0.99787   0.30068   1.000
    C62     C    0.11082   0.90896   0.31979   1.000
    C63     C    0.18892   0.89180   0.39697   1.000
    N64     N    0.79699   0.58234   0.92636   1.000
    N65     N    0.72211   0.45865   0.04552   1.000
    N66     N    0.94670   0.43175   0.73482   1.000
    N67     N    0.81638   0.23061   0.95865   1.000
    N68     N    0.70324   0.91783   0.42605   1.000
    N69     N    0.77798   0.04169   0.54524   1.000
    N70     N    0.55271   0.06861   0.23451   1.000
    N71     N    0.68181   0.26950   0.45864   1.000
    N72     N    0.20300   0.41766   0.07362   1.000
    N73     N    0.27790   0.54135   0.95447   1.000
    N74     N    0.05329   0.56825   0.26516   1.000
    N75     N    0.18360   0.76939   0.04133   1.000
    N76     N    0.29674   0.08217   0.57393   1.000
    N77     N    0.22200   0.95831   0.45474   1.000
    N78     N    0.44727   0.93139   0.76548   1.000
    N79     N    0.31818   0.73050   0.54135   1.000
loop_
    _geom_bond_atom_site_label_1
    _geom_bond_atom_site_label_2
    _geom_bond_distance
    _geom_bond_site_symmetry_2
    _ccdc_geom_bond_type
    C48    N72       1.37915      .   S
    C48    C49       1.45605  1_554   S
    C48    C47       1.39097  1_554   S
    C27    H2        1.08724      .   S
    C27    C26       1.39522  1_554   S
    C27    C28       1.39225  1_554   S
    N65    C29       1.36752      .   S
    N65    C33       1.35358      .   S
    C46    C45       1.40058      .   S
    C46    C47       1.39519  1_554   S
    C29    C30       1.39135      .   S
    C29    C28       1.46365  1_554   S
    N72    C44       1.35325      .   S
    H5     C33       1.08593      .   S
    C33    C32       1.38677      .   S
    C45    C44       1.39076      .   S
    C45    H13       1.09147      .   S
    C44    H12       1.08835      .   S
    C30    H3        1.08677      .   S
    C30    C31       1.39301      .   S
    C32    C31       1.39610      .   S
    C32    H4        1.08942      .   S
    H22    C62       1.08940      .   S
    C61    C62       1.39604      .   S
    C61    C60       1.39315  1_565   S
    H6     C34       1.08834      .   S
    C62    C63       1.38692      .   S
    H7     C35       1.09150      .   S
    H21    C60       1.08674      .   S
    C60    C59       1.39118      .   S
    C34    C35       1.39085      .   S
    C34    N68       1.35329      .   S
    C35    C36       1.40063      .   S
    C63    H23       1.08592      .   S
    C63    N77       1.35358      .   S
    N68    C38       1.36990      .   S
    H20    C57       1.08722      .   S
    C59    N77       1.36755  1_545   S
    C59    C58       1.46363      .   S
    C36    C37       1.39499      .   S
    C57    C58       1.39234      .   S
    C57    C56       1.39500      .   S
    C38    C37       1.39232      .   S
    C38    C39       1.46362      .   S
    C58    N76       1.36990      .   S
    C37    H8        1.08723      .   S
    N69    C39       1.36755  1_545   S
    N69    C43       1.35358      .   S
    C56    C55       1.40062      .   S
    C39    C40       1.39119      .   S
    N76    C54       1.35328      .   S
    H11    C43       1.08592      .   S
    C43    C42       1.38692      .   S
    C55    C54       1.39085      .   S
    C55    H19       1.09149      .   S
    C54    H18       1.08835      .   S
    C40    H9        1.08673      .   S
    C40    C41       1.37096  1_565   S
    C42    C41       1.42554      .   S
    C42    H10       1.08941      .   S
    H16    C52       1.08941      .   S
    C51    C52       1.39611      .   S
    C51    C50       1.39301      .   S
    H0     C24       1.08834      .   S
    C52    C53       1.38678      .   S
    H1     C25       1.09149      .   S
    H15    C50       1.08677      .   S
    C50    C49       1.39135      .   S
    C24    C25       1.39076      .   S
    C24    N64       1.35322      .   S
    C25    C26       1.40057      .   S
    C53    H17       1.08593      .   S
    C53    N73       1.35357      .   S
    N64    C28       1.37005      .   S
    H14    C47       1.08722      .   S
    C49    N73       1.36751      .   S
