# CIF file generated by openbabel 2.4.90, see http://openbabel.sf.net
data_I
_chemical_name_common ''
_cell_length_a 7.6955
_cell_length_b 14.667
_cell_length_c 15.813
_cell_angle_alpha 90.02
_cell_angle_beta 90.05
_cell_angle_gamma 92.045
_space_group_name_H-M_alt 'P 1'
_space_group_name_Hall 'P 1'
loop_
    _symmetry_equiv_pos_as_xyz
    x,y,z
loop_
    _atom_site_label
    _atom_site_type_symbol
    _atom_site_fract_x
    _atom_site_fract_y
    _atom_site_fract_z
    _atom_site_occupancy
    Ba0     Ba   0.74498   0.43267   0.56092   1.000
    Ba1     Ba   0.24567   0.93255   0.93892   1.000
    Ba2     Ba   0.25501   0.56733   0.43906   1.000
    H3      H    0.89567   0.61274   0.80741   1.000
    H4      H    0.87661   0.78286   0.82535   1.000
    H5      H    0.63804   0.73178   0.06743   1.000
    H6      H    0.56839   0.63615   0.15674   1.000
    H7      H    0.58336   0.35470   0.22546   1.000
    H8      H    0.72544   0.32423   0.08459   1.000
    H9      H    0.60411   0.88717   0.30713   1.000
    H10     H    0.62373   0.71713   0.32517   1.000
    H11     H    0.86384   0.76876   0.56703   1.000
    H12     H    0.93239   0.86440   0.65649   1.000
    H13     H    0.91742   0.14593   0.72511   1.000
    H14     H    0.77445   0.17612   0.58434   1.000
    H15     H    0.10432   0.38727   0.19257   1.000
    H16     H    0.12338   0.21715   0.17462   1.000
    H17     H    0.36195   0.26822   0.93255   1.000
    H18     H    0.43160   0.36385   0.84325   1.000
    H19     H    0.41663   0.64529   0.77452   1.000
    H20     H    0.27456   0.67577   0.91539   1.000
    H21     H    0.39588   0.11283   0.69285   1.000
    H22     H    0.37627   0.28287   0.67482   1.000
    H23     H    0.13615   0.23124   0.43296   1.000
    H24     H    0.06760   0.13561   0.34349   1.000
    H25     H    0.08256   0.85407   0.27487   1.000
    H26     H    0.22552   0.82388   0.41565   1.000
    Pt27    Pt   0.82282   0.44032   0.92412   1.000
    Pt28    Pt   0.67663   0.05983   0.42388   1.000
    Pt29    Pt   0.17717   0.55968   0.07586   1.000
    Pt30    Pt   0.32336   0.94017   0.57610   1.000
    C31     C    0.84379   0.64237   0.86480   1.000
    Ba32    Ba   0.75431   0.06745   0.06106   1.000
    C33     C    0.82843   0.73601   0.87430   1.000
    C34     C    0.75459   0.76963   0.94845   1.000
    C35     C    0.69864   0.70721   0.01009   1.000
    C36     C    0.72529   0.61454   0.99930   1.000
    C37     C    0.68201   0.54646   0.06430   1.000
    C38     C    0.60362   0.56712   0.14087   1.000
    C39     C    0.56584   0.49845   0.19956   1.000
    C40     C    0.61153   0.40950   0.18049   1.000
    C41     C    0.68917   0.39221   0.10330   1.000
    C42     C    0.73984   0.87032   0.96672   1.000
    C43     C    0.46881   0.52081   0.27970   1.000
    C44     C    0.90686   0.43294   0.80661   1.000
    C45     C    0.82709   0.30787   0.93868   1.000
    C46     C    0.65641   0.85768   0.36451   1.000
    C47     C    0.67219   0.76407   0.37405   1.000
    C48     C    0.74665   0.73062   0.44816   1.000
    C49     C    0.80270   0.79317   0.50973   1.000
    C50     C    0.77545   0.88578   0.49896   1.000
    C51     C    0.81857   0.95395   0.56399   1.000
    C52     C    0.89715   0.93340   0.64058   1.000
    C53     C    0.93491   0.00000   0.69931   1.000
    C54     C    0.88916   0.09105   0.68019   1.000
    C55     C    0.81106   0.10820   0.60301   1.000
    C56     C    0.76158   0.62995   0.46655   1.000
    C57     C    0.03177   0.97960   0.77951   1.000
    C58     C    0.59239   0.06722   0.30635   1.000
    C59     C    0.67154   0.19225   0.43857   1.000
    C60     C    0.15622   0.35763   0.13519   1.000
    C61     C    0.17157   0.26399   0.12568   1.000
    C62     C    0.24539   0.23038   0.05152   1.000
    C63     C    0.30136   0.29279   0.98989   1.000
    C64     C    0.27471   0.38546   0.00000   1.000
    C65     C    0.31797   0.45355   0.93568   1.000
    C66     C    0.39637   0.43288   0.85911   1.000
    C67     C    0.43417   0.50155   0.80042   1.000
    C68     C    0.38846   0.59050   0.81949   1.000
    C69     C    0.31083   0.60779   0.89668   1.000
    C70     C    0.26014   0.12968   0.03326   1.000
    C71     C    0.53120   0.47919   0.72029   1.000
    C72     C    0.09315   0.56706   0.19337   1.000
    C73     C    0.17293   0.69214   0.06131   1.000
    C74     C    0.34358   0.14232   0.63547   1.000
    C75     C    0.32781   0.23593   0.62593   1.000
    C76     C    0.25334   0.26938   0.55182   1.000
    C77     C    0.19729   0.20683   0.49026   1.000
    C78     C    0.22454   0.11422   0.50103   1.000
    C79     C    0.18141   0.04605   0.43600   1.000
    C80     C    0.10283   0.06660   0.35940   1.000
    C81     C    0.06507   0.99787   0.30068   1.000
    C82     C    0.11082   0.90896   0.31979   1.000
    C83     C    0.18892   0.89180   0.39697   1.000
    C84     C    0.23841   0.37005   0.53343   1.000
    C85     C    0.96822   0.02040   0.22046   1.000
    C86     C    0.40760   0.93278   0.69363   1.000
    C87     C    0.32846   0.80776   0.56141   1.000
    N88     N    0.79699   0.58234   0.92636   1.000
    N89     N    0.72211   0.45865   0.04552   1.000
    N90     N    0.70324   0.91783   0.42605   1.000
    N91     N    0.77798   0.04169   0.54524   1.000
    N92     N    0.20300   0.41766   0.07362   1.000
    N93     N    0.27790   0.54135   0.95447   1.000
    N94     N    0.29674   0.08217   0.57393   1.000
    N95     N    0.22200   0.95831   0.45474   1.000
    O96     O    0.87881   0.91904   0.96694   1.000
    O97     O    0.59028   0.89880   0.98534   1.000
    O98     O    0.45231   0.60498   0.29611   1.000
    O99     O    0.40729   0.45419   0.32247   1.000
    O100    O    0.62248   0.58132   0.46683   1.000
    O101    O    0.91114   0.60145   0.48524   1.000
    O102    O    0.04614   0.89536   0.79616   1.000
    O103    O    0.09526   0.04600   0.82206   1.000
    O104    O    0.12118   0.08095   0.03305   1.000
    O105    O    0.40971   0.10120   0.00000   1.000
    O106    O    0.54769   0.39502   0.70387   1.000
    O107    O    0.59271   0.54582   0.67751   1.000
    O108    O    0.37752   0.41868   0.53315   1.000
    O109    O    0.08886   0.39856   0.51474   1.000
    O110    O    0.95382   0.10465   0.20382   1.000
    O111    O    0.90471   0.95399   0.17792   1.000
loop_
    _geom_bond_atom_site_label_1
    _geom_bond_atom_site_label_2
    _geom_bond_distance
    _geom_bond_site_symmetry_2
    _ccdc_geom_bond_type
    O105   C70       1.34576      .   S
    C64    N92       1.37915      .   S
    C64    C65       1.45605  1_554   S
    C64    C63       1.39097  1_554   S
    C35    H5        1.08724      .   S
    C35    C34       1.39522  1_554   S
    C35    C36       1.39225  1_554   S
    O104   C70       1.26480      .   S
    C70    C62       1.51308      .   S
    N89    C37       1.36752      .   S
    N89    C41       1.35358      .   S
    N89    Pt27      2.09173  1_554   S
    C62    C61       1.40058      .   S
    C62    C63       1.39519  1_554   S
    Ba32   O111      2.76757  1_545   S
    Ba32   O110      2.77208      .   S
    C73    Pt29      1.95784      .   S
    C37    C38       1.39135      .   S
    C37    C36       1.46365  1_554   S
    N92    Pt29      2.09981      .   S
    N92    C60       1.35325      .   S
    Pt29   C72       1.97212      .   S
    Pt29   N93       2.09172  1_554   S
    H8     C41       1.08593      .   S
    C41    C40       1.38677      .   S
    C61    C60       1.39076      .   S
    C61    H16       1.09147      .   S
    C60    H15       1.08835      .   S
    C38    H6        1.08677      .   S
    C38    C39       1.39301      .   S
    O111   C85       1.26685  1_565   S
    C40    C39       1.39610      .   S
    C40    H7        1.08942      .   S
    C39    C43       1.51316      .   S
    O110   C85       1.27214      .   S
    C85    C81       1.51318  1_645   S
    H25    C82       1.08940      .   S
    C43    O98       1.27222      .   S
    C43    O99       1.26669      .   S
    O98    Ba2       2.76899      .   S
    C81    C82       1.39604      .   S
    C81    C80       1.39315  1_565   S
    C58    Pt28      1.97207      .   S
    H9     C46       1.08834      .   S
    C82    C83       1.38692      .   S
    O99    Ba2       2.76886      .   S
    H10    C47       1.09150      .   S
    H24    C80       1.08674      .   S
    C80    C79       1.39118      .   S
    C46    C47       1.39085      .   S
    C46    N90       1.35329      .   S
    C47    C48       1.40063      .   S
    C83    H26       1.08592      .   S
    C83    N95       1.35358      .   S
    Pt28   N90       2.10025  1_545   S
    Pt28   C59       1.95773      .   S
    Pt28   N91       2.09156      .   S
    N90    C50       1.36990      .   S
    H23    C77       1.08722      .   S
    C79    N95       1.36755  1_545   S
    C79    C78       1.46363      .   S
    C48    C56       1.51328      .   S
    C48    C49       1.39499      .   S
    N95    Pt30      2.09157      .   S
    C56    O100      1.26501      .   S
    C56    O101      1.27299      .   S
    C77    C78       1.39234      .   S
    C77    C76       1.39500      .   S
    C50    C49       1.39232      .   S
    C50    C51       1.46362      .   S
    C78    N94       1.36990      .   S
    C49    H11       1.08723      .   S
    O109   C84       1.27299      .   S
    O108   C84       1.26502      .   S
    C84    C76       1.51329      .   S
    N91    C51       1.36755  1_545   S
    N91    C55       1.35358      .   S
    C76    C75       1.40062      .   S
    Ba0    O107      2.76884      .   S
    Ba0    O106      2.76895      .   S
    C87    Pt30      1.95772      .   S
    C51    C52       1.39119      .   S
    N94    Pt30      2.10024  1_545   S
    N94    C74       1.35328      .   S
    Pt30   C86       1.97209      .   S
    H14    C55       1.08592      .   S
    C55    C54       1.38692      .   S
    C75    C74       1.39085      .   S
    C75    H22       1.09149      .   S
    C74    H21       1.08835      .   S
    C52    H12       1.08673      .   S
    C52    C53       1.37096  1_565   S
    O107   C71       1.26670      .   S
    C54    C53       1.42554      .   S
    C54    H13       1.08941      .   S
    C53    C57       1.50607  1_645   S
    O106   C71       1.27223      .   S
    C71    C67       1.51314      .   S
    H19    C68       1.08941      .   S
    C57    O102      1.27214      .   S
    C57    O103      1.26684  1_565   S
    O102   Ba1       2.77212      .   S
    C67    C68       1.39611      .   S
    C67    C66       1.39301      .   S
    C44    Pt27      1.97214      .   S
    H3     C31       1.08834      .   S
    C68    C69       1.38678      .   S
    O103   Ba1       2.76757  1_545   S
    H4     C33       1.09149      .   S
    H18    C66       1.08677      .   S
    C66    C65       1.39135      .   S
    C31    C33       1.39076      .   S
    C31    N88       1.35322      .   S
    C33    C34       1.40057      .   S
    C69    H20       1.08593      .   S
    C69    N93       1.35357      .   S
    Pt27   N88       2.09980      .   S
    Pt27   C45       1.95785      .   S
    N88    C36       1.37005      .   S
    H17    C63       1.08722      .   S
    C65    N93       1.36751      .   S
    C34    C42       1.51308      .   S
    C42    O96       1.26481      .   S
    C42    O97       1.27305      .   S
    O96    Ba32      2.83200  1_566   S
    O96    Ba1       2.85804  1_655   S
    O97    Ba32      2.98639  1_566   S
    O97    Ba1       2.81194      .   S
    O100   Ba0       2.82883      .   S
    O100   Ba2       2.86150      .   S
    O101   Ba0       2.99559      .   S
    O101   Ba2       2.80782  1_655   S
    O104   Ba32      2.85807  1_455   S
    O104   Ba1       2.83202  1_544   S
    O105   Ba32      2.88086      .   S
    O105   Ba1       2.90141  1_544   S
    O108   Ba0       2.86140      .   S
    O108   Ba2       2.82887      .   S
    O109   Ba0       2.80790  1_455   S
    O109   Ba2       2.99549      .   S
