# CIF file generated by openbabel 2.4.90, see http://openbabel.sf.net
data_I
_chemical_name_common ''
_cell_length_a 7.6955
_cell_length_b 14.667
_cell_length_c 15.813
_cell_angle_alpha 90.02
_cell_angle_beta 90.05
_cell_angle_gamma 92.045
_space_group_name_H-M_alt 'P 1'
_space_group_name_Hall 'P 1'
loop_
    _symmetry_equiv_pos_as_xyz
    x,y,z
loop_
    _atom_site_label
    _atom_site_type_symbol
    _atom_site_fract_x
    _atom_site_fract_y
    _atom_site_fract_z
    _atom_site_occupancy
    Ba0     Ba   0.74498   0.43267   0.56092   1.000
    Ba1     Ba   0.24567   0.93255   0.93892   1.000
    Ba2     Ba   0.25501   0.56733   0.43906   1.000
    Pt3     Pt   0.82282   0.44032   0.92412   1.000
    Pt4     Pt   0.67663   0.05983   0.42388   1.000
    Pt5     Pt   0.17717   0.55968   0.07586   1.000
    Pt6     Pt   0.32336   0.94017   0.57610   1.000
    Ba7     Ba   0.75431   0.06745   0.06106   1.000
    C8      C    0.90686   0.43294   0.80661   1.000
    C9      C    0.82709   0.30787   0.93868   1.000
    C10     C    0.59239   0.06722   0.30635   1.000
    C11     C    0.67154   0.19225   0.43857   1.000
    C12     C    0.09315   0.56706   0.19337   1.000
    C13     C    0.17293   0.69214   0.06131   1.000
    C14     C    0.40760   0.93278   0.69363   1.000
    C15     C    0.32846   0.80776   0.56141   1.000
loop_
    _geom_bond_atom_site_label_1
    _geom_bond_atom_site_label_2
    _geom_bond_distance
    _geom_bond_site_symmetry_2
    _ccdc_geom_bond_type
    C13    Pt5       1.95784      .   S
    Pt5    C12       1.97212      .   S
    C10    Pt4       1.97207      .   S
    Pt4    C11       1.95773      .   S
    C15    Pt6       1.95772      .   S
    Pt6    C14       1.97209      .   S
    C8     Pt3       1.97214      .   S
    Pt3    C9        1.95785      .   S
