# CIF file generated by openbabel 2.4.90, see http://openbabel.sf.net
data_I
_chemical_name_common ''
_cell_length_a 7.6955
_cell_length_b 14.667
_cell_length_c 15.813
_cell_angle_alpha 90.02
_cell_angle_beta 90.05
_cell_angle_gamma 92.045
_space_group_name_H-M_alt 'P 1'
_space_group_name_Hall 'P 1'
loop_
    _symmetry_equiv_pos_as_xyz
    x,y,z
loop_
    _atom_site_label
    _atom_site_type_symbol
    _atom_site_fract_x
    _atom_site_fract_y
    _atom_site_fract_z
    _atom_site_occupancy
    Ba0     Ba   0.74498   0.43267   0.56092   1.000
    Ba1     Ba   0.24567   0.93255   0.93892   1.000
    Ba2     Ba   0.25501   0.56733   0.43906   1.000
    Pt3     Pt   0.82282   0.44032   0.92412   1.000
    Pt4     Pt   0.67663   0.05983   0.42388   1.000
    Pt5     Pt   0.17717   0.55968   0.07586   1.000
    Pt6     Pt   0.32336   0.94017   0.57610   1.000
    Ba7     Ba   0.75431   0.06745   0.06106   1.000
    C8      C    0.73984   0.87032   0.96672   1.000
    C9      C    0.46881   0.52081   0.27970   1.000
    C10     C    0.90686   0.43294   0.80661   1.000
    C11     C    0.82709   0.30787   0.93868   1.000
    C12     C    0.76158   0.62995   0.46655   1.000
    C13     C    0.03177   0.97960   0.77951   1.000
    C14     C    0.59239   0.06722   0.30635   1.000
    C15     C    0.67154   0.19225   0.43857   1.000
    C16     C    0.26014   0.12968   0.03326   1.000
    C17     C    0.53120   0.47919   0.72029   1.000
    C18     C    0.09315   0.56706   0.19337   1.000
    C19     C    0.17293   0.69214   0.06131   1.000
    C20     C    0.23841   0.37005   0.53343   1.000
    C21     C    0.96822   0.02040   0.22046   1.000
    C22     C    0.40760   0.93278   0.69363   1.000
    C23     C    0.32846   0.80776   0.56141   1.000
    O24     O    0.87881   0.91904   0.96694   1.000
    O25     O    0.59028   0.89880   0.98534   1.000
    O26     O    0.45231   0.60498   0.29611   1.000
    O27     O    0.40729   0.45419   0.32247   1.000
    O28     O    0.62248   0.58132   0.46683   1.000
    O29     O    0.91114   0.60145   0.48524   1.000
    O30     O    0.04614   0.89536   0.79616   1.000
    O31     O    0.09526   0.04600   0.82206   1.000
    O32     O    0.12118   0.08095   0.03305   1.000
    O33     O    0.40971   0.10120   0.00000   1.000
    O34     O    0.54769   0.39502   0.70387   1.000
    O35     O    0.59271   0.54582   0.67751   1.000
    O36     O    0.37752   0.41868   0.53315   1.000
    O37     O    0.08886   0.39856   0.51474   1.000
    O38     O    0.95382   0.10465   0.20382   1.000
    O39     O    0.90471   0.95399   0.17792   1.000
    Ts40    Ts   0.81421   0.48766   0.92486   1.000
    Ts41    Ts   0.78925   0.44643   0.96458   1.000
    Ts42    Ts   0.68550   0.01250   0.42461   1.000
    Ts43    Ts   0.71041   0.05378   0.46434   1.000
    Ts44    Ts   0.18578   0.51234   0.07512   1.000
    Ts45    Ts   0.21074   0.55357   0.03540   1.000
    Ts46    Ts   0.31448   0.98750   0.57538   1.000
    Ts47    Ts   0.28957   0.94622   0.53565   1.000
    Og48    Og   0.74476   0.83676   0.96063   1.000
    Og49    Og   0.50116   0.51335   0.25298   1.000
    Ts50    Ts   0.92014   0.43255   0.78268   1.000
    Ts51    Ts   0.82352   0.28212   0.94534   1.000
    Og52    Og   0.75661   0.66351   0.46042   1.000
    Og53    Og   0.99949   0.98640   0.75278   1.000
    Ts54    Ts   0.57917   0.06768   0.28240   1.000
    Ts55    Ts   0.67496   0.21800   0.44526   1.000
    Og56    Og   0.25522   0.16325   0.03935   1.000
    Og57    Og   0.49886   0.48665   0.74700   1.000
    Ts58    Ts   0.07987   0.56746   0.21730   1.000
    Ts59    Ts   0.17649   0.71789   0.05465   1.000
    Og60    Og   0.24339   0.33649   0.53956   1.000
    Og61    Og   0.00050   0.01289   0.24720   1.000
    Ts62    Ts   0.42082   0.93232   0.71758   1.000
    Ts63    Ts   0.32503   0.78200   0.55472   1.000
loop_
    _geom_bond_atom_site_label_1
    _geom_bond_atom_site_label_2
    _geom_bond_distance
    _geom_bond_site_symmetry_2
    _ccdc_geom_bond_type
    O33    C16       1.34576      .   S
    O32    C16       1.26480      .   S
    Ba7    O39       2.76757  1_545   S
    Ba7    O38       2.77208      .   S
    C19    Pt5       1.95784      .   S
    Pt5    C18       1.97212      .   S
    O39    C21       1.26685  1_565   S
    O38    C21       1.27214      .   S
    C9     O26       1.27222      .   S
    C9     O27       1.26669      .   S
    O26    Ba2       2.76899      .   S
    C14    Pt4       1.97207      .   S
    O27    Ba2       2.76886      .   S
    Pt4    C15       1.95773      .   S
    C12    O28       1.26501      .   S
    C12    O29       1.27299      .   S
    O37    C20       1.27299      .   S
    O36    C20       1.26502      .   S
    Ba0    O35       2.76884      .   S
    Ba0    O34       2.76895      .   S
    C23    Pt6       1.95772      .   S
    Pt6    C22       1.97209      .   S
    O35    C17       1.26670      .   S
    O34    C17       1.27223      .   S
    C13    O30       1.27214      .   S
    C13    O31       1.26684  1_565   S
    O30    Ba1       2.77212      .   S
    C10    Pt3       1.97214      .   S
    O31    Ba1       2.76757  1_545   S
    Pt3    C11       1.95785      .   S
    C8     O24       1.26481      .   S
    C8     O25       1.27305      .   S
    O24    Ba7       2.83200  1_566   S
    O24    Ba1       2.85804  1_655   S
    O25    Ba7       2.98639  1_566   S
    O25    Ba1       2.81194      .   S
    O28    Ba0       2.82883      .   S
    O28    Ba2       2.86150      .   S
    O29    Ba0       2.99559      .   S
    O29    Ba2       2.80782  1_655   S
    O32    Ba7       2.85807  1_455   S
    O32    Ba1       2.83202  1_544   S
    O33    Ba7       2.88086      .   S
    O33    Ba1       2.90141  1_544   S
    O36    Ba0       2.86140      .   S
    O36    Ba2       2.82887      .   S
    O37    Ba0       2.80790  1_455   S
    O37    Ba2       2.99549      .   S
    Pt3    Ts40      0.69993      .   S
    Pt3    Ts41      0.69724      .   S
    Pt4    Ts42      0.70008      .   S
    Pt4    Ts43      0.69719      .   S
    Pt5    Ts44      0.69994      .   S
    Pt5    Ts45      0.69724      .   S
    Pt6    Ts46      0.70008      .   S
    Pt6    Ts47      0.69719      .   S
    C8     Og48      0.50436      .   S
    C9     Og49      0.50439      .   S
    C10    Ts50      0.39217      .   S
    C11    Ts51      0.39216      .   S
    C12    Og52      0.50443      .   S
    C13    Og53      0.50202  1_455   S
    C14    Ts54      0.39217      .   S
    C15    Ts55      0.39215      .   S
    C16    Og56      0.50436      .   S
    C17    Og57      0.50438      .   S
    C18    Ts58      0.39217      .   S
    C19    Ts59      0.39216      .   S
    C20    Og60      0.50443      .   S
    C21    Og61      0.50439  1_655   S
    C22    Ts62      0.39217      .   S
    C23    Ts63      0.39215      .   S
