# CIF file generated by openbabel 2.4.90, see http://openbabel.sf.net
data_I
_chemical_name_common ''
_cell_length_a 7.6955
_cell_length_b 14.667
_cell_length_c 15.813
_cell_angle_alpha 90.02
_cell_angle_beta 90.05
_cell_angle_gamma 92.045
_space_group_name_H-M_alt 'P 1'
_space_group_name_Hall 'P 1'
loop_
    _symmetry_equiv_pos_as_xyz
    x,y,z
loop_
    _atom_site_label
    _atom_site_type_symbol
    _atom_site_fract_x
    _atom_site_fract_y
    _atom_site_fract_z
    _atom_site_occupancy
    C0      C    0.73984   0.87032   0.96672   1.000
    C1      C    0.46881   0.52081   0.27970   1.000
    C2      C    0.76158   0.62995   0.46655   1.000
    C3      C    0.03177   0.97960   0.77951   1.000
    C4      C    0.26014   0.12968   0.03326   1.000
    C5      C    0.53120   0.47919   0.72029   1.000
    C6      C    0.23841   0.37005   0.53343   1.000
    C7      C    0.96822   0.02040   0.22046   1.000
    O8      O    0.87881   0.91904   0.96694   1.000
    O9      O    0.59028   0.89880   0.98534   1.000
    O10     O    0.45231   0.60498   0.29611   1.000
    O11     O    0.40729   0.45419   0.32247   1.000
    O12     O    0.62248   0.58132   0.46683   1.000
    O13     O    0.91114   0.60145   0.48524   1.000
    O14     O    0.04614   0.89536   0.79616   1.000
    O15     O    0.09526   0.04600   0.82206   1.000
    O16     O    0.12118   0.08095   0.03305   1.000
    O17     O    0.40971   0.10120   0.00000   1.000
    O18     O    0.54769   0.39502   0.70387   1.000
    O19     O    0.59271   0.54582   0.67751   1.000
    O20     O    0.37752   0.41868   0.53315   1.000
    O21     O    0.08886   0.39856   0.51474   1.000
    O22     O    0.95382   0.10465   0.20382   1.000
    O23     O    0.90471   0.95399   0.17792   1.000
loop_
    _geom_bond_atom_site_label_1
    _geom_bond_atom_site_label_2
    _geom_bond_distance
    _geom_bond_site_symmetry_2
    _ccdc_geom_bond_type
    O17    C4        1.34576      .   S
    O16    C4        1.26480      .   S
    O23    C7        1.26685  1_565   S
    O22    C7        1.27214      .   S
    C1     O10       1.27222      .   S
    C1     O11       1.26669      .   S
    C2     O12       1.26501      .   S
    C2     O13       1.27299      .   S
    O21    C6        1.27299      .   S
    O20    C6        1.26502      .   S
    O19    C5        1.26670      .   S
    O18    C5        1.27223      .   S
    C3     O14       1.27214      .   S
    C3     O15       1.26684  1_565   S
    C0     O8        1.26481      .   S
    C0     O9        1.27305      .   S
