# CIF file generated by openbabel 2.4.90, see http://openbabel.sf.net
data_I
_chemical_name_common ''
_cell_length_a 7.6955
_cell_length_b 14.667
_cell_length_c 15.813
_cell_angle_alpha 90.02
_cell_angle_beta 90.05
_cell_angle_gamma 92.045
_space_group_name_H-M_alt 'P 1'
_space_group_name_Hall 'P 1'
loop_
    _symmetry_equiv_pos_as_xyz
    x,y,z
loop_
    _atom_site_label
    _atom_site_type_symbol
    _atom_site_fract_x
    _atom_site_fract_y
    _atom_site_fract_z
    _atom_site_occupancy
    Zr0     Zr   0.75431   0.06745   0.06106   1.000
    Zr1     Zr   0.74498   0.43267   0.56092   1.000
    Zr2     Zr   0.24567   0.93255   0.93892   1.000
    Zr3     Zr   0.25501   0.56733   0.43906   1.000
    N4      N    0.63905   0.46528   0.13343   1.000
    N5      N    0.78423   0.68661   0.92483   1.000
    O6      O    0.72779   0.60475   0.00372   1.000
    N7      N    0.21577   0.31339   0.07507   1.000
    N8      N    0.36094   0.53473   0.86656   1.000
    O9      O    0.30850   0.45059   0.94401   1.000
    N10     N    0.13853   0.96479   0.36684   1.000
    N11     N    0.28351   0.18642   0.57545   1.000
    O12     O    0.22713   0.10444   0.49656   1.000
    N13     N    0.71648   0.81358   0.42453   1.000
    N14     N    0.86145   0.03497   0.63314   1.000
    O15     O    0.80910   0.95085   0.55557   1.000
    C16     C    0.73631   0.89606   0.97300   1.000
    O17     O    0.89927   0.91093   0.96297   1.000
    O18     O    0.57714   0.90587   0.96757   1.000
    O19     O    0.75101   0.82467   0.95710   1.000
    C20     C    0.94225   0.02635   0.20074   1.000
    O21     O    0.00992   0.00665   0.25722   1.000
    C22     C    0.05773   0.97366   0.79925   1.000
    O23     O    0.99006   0.99302   0.74276   1.000
    C24     C    0.26368   0.10394   0.02210   1.000
    O25     O    0.42284   0.09413   0.02632   1.000
    O26     O    0.10071   0.08907   0.03458   1.000
    O27     O    0.24897   0.17533   0.04042   1.000
    C28     C    0.76507   0.60424   0.47288   1.000
    O29     O    0.92407   0.59431   0.46751   1.000
    O30     O    0.60190   0.58928   0.46291   1.000
    O31     O    0.75018   0.67559   0.45691   1.000
    C32     C    0.23493   0.39576   0.52711   1.000
    O33     O    0.07593   0.40569   0.53247   1.000
    O34     O    0.39809   0.41072   0.53707   1.000
    O35     O    0.24981   0.32441   0.54307   1.000
    C36     C    0.44280   0.52666   0.29942   1.000
    O37     O    0.51050   0.50705   0.24298   1.000
    C38     C    0.55720   0.47334   0.70056   1.000
    O39     O    0.48951   0.49295   0.75701   1.000
    Zr40    Zr   0.14775   0.60629   0.11018   1.000
    O41     O    0.17534   0.50366   0.09254   1.000
    O42     O    0.22099   0.57446   0.02552   1.000
    Zr43    Zr   0.64685   0.10643   0.38960   1.000
    O44     O    0.67503   0.00382   0.40718   1.000
    O45     O    0.72062   0.07465   0.47423   1.000
    Zr46    Zr   0.35314   0.89357   0.61038   1.000
    O47     O    0.32496   0.99618   0.59281   1.000
    O48     O    0.27937   0.92529   0.52576   1.000
    Zr49    Zr   0.85226   0.39371   0.88980   1.000
    O50     O    0.77901   0.42555   0.97446   1.000
    O51     O    0.82466   0.49634   0.90742   1.000
    O52     O    0.89202   0.03737   0.16335   1.000
    O53     O    0.10796   0.96264   0.83663   1.000
    O54     O    0.39260   0.53756   0.33680   1.000
    O55     O    0.23952   0.44187   0.50431   1.000
    O56     O    0.76048   0.55814   0.49568   1.000
    O57     O    0.25962   0.05788   0.99991   1.000
    O58     O    0.60740   0.46244   0.66318   1.000
    O59     O    0.74037   0.94212   0.99580   1.000
loop_
    _geom_bond_atom_site_label_1
    _geom_bond_atom_site_label_2
    _geom_bond_distance
    _geom_bond_site_symmetry_2
    _ccdc_geom_bond_type
    N5     O6        1.77516  1_556   S
    N4     O6        2.96027      .   S
    N8     O9        1.77540      .   S
    N7     O9        2.95917  1_554   S
    N11    O12       1.77507      .   S
    N10    O12       2.96023  1_565   S
    N14    O15       1.77535  1_545   S
    N13    O15       2.95757      .   S
    C16    O17       1.27529      .   S
    Zr2    O17       2.70049  1_455   S
    C16    O18       1.24129      .   S
    Zr2    O18       2.63333      .   S
    C16    O19       1.08648      .   S
    N5     O19       2.11255      .   S
    C20    O21       1.07818  1_655   S
    N10    O21       2.09819  1_565   S
    C22    O23       1.07682  1_455   S
    N14    O23       2.09857  1_545   S
    C24    O25       1.24011      .   S
    Zr0    O25       2.65152      .   S
    C24    O26       1.28071      .   S
    Zr0    O26       2.70625  1_655   S
    C24    O27       1.09597      .   S
    N7     O27       2.12195      .   S
    C28    O29       1.24036      .   S
    Zr3    O29       2.63034  1_455   S
    C28    O30       1.27652      .   S
    Zr3    O30       2.70356      .   S
    C28    O31       1.08653      .   S
    N13    O31       2.11274      .   S
    C32    O33       1.24038      .   S
    Zr1    O33       2.63040  1_655   S
    C32    O34       1.27650      .   S
    Zr1    O34       2.70349      .   S
    C32    O35       1.08653      .   S
    N11    O35       2.11274      .   S
    C36    O37       1.07804      .   S
    N4     O37       2.09778      .   S
    C38    O39       1.07803      .   S
    N8     O39       2.09778      .   S
    Zr40   O41       1.55284      .   S
    N7     O41       2.83239      .   S
    Zr40   O42       1.53218      .   S
    N8     O42       2.80476  1_556   S
    Zr43   O44       1.55333      .   S
    N13    O44       2.83309  1_565   S
    Zr43   O45       1.53239      .   S
    N14    O45       2.80523      .   S
    Zr46   O47       1.55333      .   S
    N11    O47       2.83310  1_545   S
    Zr46   O48       1.53213      .   S
    N10    O48       2.80466      .   S
    Zr49   O50       1.53218      .   S
    N4     O50       2.80476  1_554   S
    Zr49   O51       1.55279      .   S
    N5     O51       2.83231      .   S
    C20    O52       0.72743      .   S
    Zr0    O52       1.99123      .   S
    C22    O53       0.72744      .   S
    Zr2    O53       1.99125      .   S
    Zr3    O54       1.99056      .   S
    C36    O54       0.72722      .   S
    Zr3    O55       2.10963      .   S
    C32    O55       0.76617      .   S
    C28    O56       0.76618      .   S
    Zr1    O56       2.10965      .   S
    Zr2    O57       2.07490  1_565   S
    C24    O57       0.76086  1_554   S
    Zr1    O58       1.99052      .   S
    C38    O58       0.72721      .   S
    Zr0    O59       2.10714  1_544   S
    C16    O59       0.76536      .   S
