# CIF file generated by openbabel 2.4.90, see http://openbabel.sf.net
data_I
_chemical_name_common ''
_cell_length_a 7.6955
_cell_length_b 14.667
_cell_length_c 15.813
_cell_angle_alpha 90.02
_cell_angle_beta 90.05
_cell_angle_gamma 92.045
_space_group_name_H-M_alt 'P 1'
_space_group_name_Hall 'P 1'
loop_
    _symmetry_equiv_pos_as_xyz
    x,y,z
loop_
    _atom_site_label
    _atom_site_type_symbol
    _atom_site_fract_x
    _atom_site_fract_y
    _atom_site_fract_z
    _atom_site_occupancy
    Zr0     Zr   0.75431   0.06745   0.06106   1.000
    Zr1     Zr   0.74498   0.43267   0.56092   1.000
    Zr2     Zr   0.24567   0.93255   0.93892   1.000
    Zr3     Zr   0.25501   0.56733   0.43906   1.000
    N4      N    0.63905   0.46528   0.13343   1.000
    N5      N    0.78423   0.68661   0.92483   1.000
    O6      O    0.72779   0.60475   0.00372   1.000
    N7      N    0.21577   0.31339   0.07507   1.000
    N8      N    0.36094   0.53473   0.86656   1.000
    O9      O    0.30850   0.45059   0.94401   1.000
    N10     N    0.13853   0.96479   0.36684   1.000
    N11     N    0.28351   0.18642   0.57545   1.000
    O12     O    0.22713   0.10444   0.49656   1.000
    N13     N    0.71648   0.81358   0.42453   1.000
    N14     N    0.86145   0.03497   0.63314   1.000
    O15     O    0.80910   0.95085   0.55557   1.000
    N16     N    0.81638   0.23061   0.95865   1.000
    N17     N    0.05329   0.56825   0.26516   1.000
    N18     N    0.94670   0.43175   0.73482   1.000
    N19     N    0.55271   0.06861   0.23451   1.000
    N20     N    0.18360   0.76939   0.04133   1.000
    N21     N    0.31818   0.73050   0.54135   1.000
    N22     N    0.44727   0.93139   0.76548   1.000
    N23     N    0.68181   0.26950   0.45864   1.000
    C24     C    0.73631   0.89606   0.97300   1.000
    O25     O    0.77643   0.94465   0.99350   1.000
    O26     O    0.89927   0.91093   0.96297   1.000
    O27     O    0.70430   0.93959   0.99810   1.000
    O28     O    0.57714   0.90587   0.96757   1.000
    O29     O    0.75101   0.82467   0.95710   1.000
    C30     C    0.94225   0.02635   0.20074   1.000
    O31     O    0.00992   0.00665   0.25722   1.000
    O32     O    0.89816   0.05620   0.16659   1.000
    O33     O    0.88588   0.01853   0.16011   1.000
    C34     C    0.05773   0.97366   0.79925   1.000
    O35     O    0.99006   0.99302   0.74276   1.000
    O36     O    0.11410   0.98147   0.83987   1.000
    O37     O    0.10182   0.94380   0.83339   1.000
    C38     C    0.26368   0.10394   0.02210   1.000
    O39     O    0.42284   0.09413   0.02632   1.000
    O40     O    0.29568   0.06041   0.99578   1.000
    O41     O    0.10071   0.08907   0.03458   1.000
    O42     O    0.22355   0.05535   0.00405   1.000
    O43     O    0.24897   0.17533   0.04042   1.000
    C44     C    0.76507   0.60424   0.47288   1.000
    O45     O    0.92407   0.59431   0.46751   1.000
    O46     O    0.79656   0.56065   0.49798   1.000
    O47     O    0.72440   0.55562   0.49338   1.000
    O48     O    0.60190   0.58928   0.46291   1.000
    O49     O    0.75018   0.67559   0.45691   1.000
    C50     C    0.23493   0.39576   0.52711   1.000
    O51     O    0.07593   0.40569   0.53247   1.000
    O52     O    0.20343   0.43935   0.50200   1.000
    O53     O    0.39809   0.41072   0.53707   1.000
    O54     O    0.27560   0.44438   0.50661   1.000
    O55     O    0.24981   0.32441   0.54307   1.000
    C56     C    0.44280   0.52666   0.29942   1.000
    O57     O    0.38697   0.51871   0.34010   1.000
    O58     O    0.51050   0.50705   0.24298   1.000
    O59     O    0.39823   0.55640   0.33351   1.000
    C60     C    0.55720   0.47334   0.70056   1.000
    O61     O    0.61302   0.48129   0.65989   1.000
    O62     O    0.48951   0.49295   0.75701   1.000
    O63     O    0.60177   0.44360   0.66648   1.000
    Zr64    Zr   0.14775   0.60629   0.11018   1.000
    O65     O    0.10550   0.58712   0.17870   1.000
    O66     O    0.17534   0.50366   0.09254   1.000
    O67     O    0.22099   0.57446   0.02552   1.000
    O68     O    0.16434   0.67818   0.07825   1.000
    Zr69    Zr   0.64685   0.10643   0.38960   1.000
    O70     O    0.67503   0.00382   0.40718   1.000
    O71     O    0.72062   0.07465   0.47423   1.000
    O72     O    0.66305   0.17831   0.42161   1.000
    O73     O    0.60474   0.08735   0.32103   1.000
    Zr74    Zr   0.35314   0.89357   0.61038   1.000
    O75     O    0.33694   0.82169   0.57837   1.000
    O76     O    0.32496   0.99618   0.59281   1.000
    O77     O    0.27937   0.92529   0.52576   1.000
    O78     O    0.39525   0.91265   0.67895   1.000
    Zr79    Zr   0.85226   0.39371   0.88980   1.000
    O80     O    0.89450   0.41288   0.82128   1.000
    O81     O    0.83566   0.32182   0.92173   1.000
    O82     O    0.77901   0.42555   0.97446   1.000
    O83     O    0.82466   0.49634   0.90742   1.000
loop_
    _geom_bond_atom_site_label_1
    _geom_bond_atom_site_label_2
    _geom_bond_distance
    _geom_bond_site_symmetry_2
    _ccdc_geom_bond_type
    N5     O6        1.77516  1_556   S
    N4     O6        2.96027      .   S
    N8     O9        1.77540      .   S
    N7     O9        2.95917  1_554   S
    N11    O12       1.77507      .   S
    N10    O12       2.96023  1_565   S
    N14    O15       1.77535  1_545   S
    N13    O15       2.95757      .   S
    C24    O25       0.83212      .   S
    Zr0    O25       2.10600  1_544   S
    C24    O26       1.27529      .   S
    Zr2    O26       2.70049  1_455   S
    C24    O27       0.79822      .   S
    Zr0    O27       2.14542  1_544   S
    C24    O28       1.24129      .   S
    Zr2    O28       2.63333      .   S
    C24    O29       1.08648      .   S
    N5     O29       2.11255      .   S
    C30    O31       1.07818  1_655   S
    N10    O31       2.09819  1_565   S
    C30    O32       0.78028      .   S
    Zr0    O32       2.01178      .   S
    C30    O33       0.78092      .   S
    Zr0    O33       2.01076      .   S
    C34    O35       1.07682  1_455   S
    N14    O35       2.09857  1_545   S
    C34    O36       0.78094      .   S
    Zr2    O36       2.01077      .   S
    C34    O37       0.78029      .   S
    Zr2    O37       2.01181      .   S
    C38    O39       1.24011      .   S
    Zr0    O39       2.65152      .   S
    C38    O40       0.80799  1_554   S
    Zr2    O40       2.10240  1_565   S
    C38    O41       1.28071      .   S
    Zr0    O41       2.70625  1_655   S
    C38    O42       0.81787      .   S
    Zr2    O42       2.08669  1_566   S
    C38    O43       1.09597      .   S
    N7     O43       2.12195      .   S
    C44    O45       1.24036      .   S
    Zr3    O45       2.63034  1_455   S
    C44    O46       0.79758      .   S
    Zr1    O46       2.14949      .   S
    C44    O47       0.83427      .   S
    Zr1    O47       2.10690      .   S
    C44    O48       1.27652      .   S
    Zr3    O48       2.70356      .   S
    C44    O49       1.08653      .   S
    N13    O49       2.11274      .   S
    C50    O51       1.24038      .   S
    Zr1    O51       2.63040  1_655   S
    C50    O52       0.79759      .   S
    Zr3    O52       2.14945      .   S
    C50    O53       1.27650      .   S
    Zr1    O53       2.70349      .   S
    C50    O54       0.83425      .   S
    Zr3    O54       2.10689      .   S
    C50    O55       1.08653      .   S
    N11    O55       2.11274      .   S
    C56    O57       0.78022      .   S
    Zr3    O57       2.01065      .   S
    C56    O58       1.07804      .   S
    N4     O58       2.09778      .   S
    C56    O59       0.78057      .   S
    Zr3    O59       2.01054      .   S
    C60    O61       0.78021      .   S
    Zr1    O61       2.01062      .   S
    C60    O62       1.07803      .   S
    N8     O62       2.09778      .   S
    C60    O63       0.78056      .   S
    Zr1    O63       2.01050      .   S
    Zr64   O65       1.16316      .   S
    N17    O65       1.44941      .   S
    Zr64   O66       1.55284      .   S
    N7     O66       2.83239      .   S
    Zr64   O67       1.53218      .   S
    N8     O67       2.80476  1_556   S
    Zr64   O68       1.17216      .   S
    N20    O68       1.46251      .   S
    Zr69   O70       1.55333      .   S
    N13    O70       2.83309  1_565   S
    Zr69   O71       1.53239      .   S
    N14    O71       2.80523      .   S
    Zr69   O72       1.17186      .   S
    N23    O72       1.46219      .   S
    Zr69   O73       1.16262      .   S
    N19    O73       1.44879      .   S
    Zr74   O75       1.17186      .   S
    N21    O75       1.46219      .   S
    Zr74   O76       1.55333      .   S
    N11    O76       2.83310  1_545   S
    Zr74   O77       1.53213      .   S
    N10    O77       2.80466      .   S
    Zr74   O78       1.16263      .   S
    N22    O78       1.44879      .   S
    Zr79   O80       1.16316      .   S
    N18    O80       1.44941      .   S
    Zr79   O81       1.17216      .   S
    N16    O81       1.46250      .   S
    Zr79   O82       1.53218      .   S
    N4     O82       2.80476  1_554   S
    Zr79   O83       1.55279      .   S
    N5     O83       2.83231      .   S
