# CIF file generated by openbabel 2.4.90, see http://openbabel.sf.net
data_I
_chemical_name_common ''
_cell_length_a 7.6955
_cell_length_b 14.667
_cell_length_c 15.813
_cell_angle_alpha 90.02
_cell_angle_beta 90.05
_cell_angle_gamma 92.045
_space_group_name_H-M_alt 'P 1'
_space_group_name_Hall 'P 1'
loop_
    _symmetry_equiv_pos_as_xyz
    x,y,z
loop_
    _atom_site_label
    _atom_site_type_symbol
    _atom_site_fract_x
    _atom_site_fract_y
    _atom_site_fract_z
    _atom_site_occupancy
    C0      C    0.75431   0.06745   0.06106   1.000
    C1      C    0.74498   0.43267   0.56092   1.000
    C2      C    0.24567   0.93255   0.93892   1.000
    C3      C    0.25501   0.56733   0.43906   1.000
    C4      C    0.89567   0.61274   0.80741   1.000
    C5      C    0.87661   0.78286   0.82535   1.000
    C6      C    0.63804   0.73178   0.06743   1.000
    C7      C    0.56839   0.63615   0.15674   1.000
    C8      C    0.58336   0.35470   0.22546   1.000
    C9      C    0.72544   0.32423   0.08459   1.000
    C10     C    0.60411   0.88717   0.30713   1.000
    C11     C    0.62373   0.71713   0.32517   1.000
    C12     C    0.86384   0.76876   0.56703   1.000
    C13     C    0.93239   0.86440   0.65649   1.000
    C14     C    0.91742   0.14593   0.72511   1.000
    C15     C    0.77445   0.17612   0.58434   1.000
    C16     C    0.10432   0.38727   0.19257   1.000
    C17     C    0.12338   0.21715   0.17462   1.000
    C18     C    0.36195   0.26822   0.93255   1.000
    C19     C    0.43160   0.36385   0.84325   1.000
    C20     C    0.41663   0.64529   0.77452   1.000
    C21     C    0.27456   0.67577   0.91539   1.000
    C22     C    0.39588   0.11283   0.69285   1.000
    C23     C    0.37627   0.28287   0.67482   1.000
    C24     C    0.13615   0.23124   0.43296   1.000
    C25     C    0.06760   0.13561   0.34349   1.000
    C26     C    0.08256   0.85407   0.27487   1.000
    C27     C    0.22552   0.82388   0.41565   1.000
    C28     C    0.82282   0.44032   0.92412   1.000
    C29     C    0.67663   0.05983   0.42388   1.000
    C30     C    0.17717   0.55968   0.07586   1.000
    C31     C    0.32336   0.94017   0.57610   1.000
    C32     C    0.84379   0.64237   0.86480   1.000
    C33     C    0.82843   0.73601   0.87430   1.000
    C34     C    0.75459   0.76963   0.94845   1.000
    C35     C    0.69864   0.70721   0.01009   1.000
    C36     C    0.72529   0.61454   0.99930   1.000
    C37     C    0.68201   0.54646   0.06430   1.000
    C38     C    0.60362   0.56712   0.14087   1.000
    C39     C    0.56584   0.49845   0.19956   1.000
    C40     C    0.61153   0.40950   0.18049   1.000
    C41     C    0.68917   0.39221   0.10330   1.000
    C42     C    0.73984   0.87032   0.96672   1.000
    C43     C    0.46881   0.52081   0.27970   1.000
    C44     C    0.90686   0.43294   0.80661   1.000
    C45     C    0.82709   0.30787   0.93868   1.000
    C46     C    0.65641   0.85768   0.36451   1.000
    C47     C    0.67219   0.76407   0.37405   1.000
    C48     C    0.74665   0.73062   0.44816   1.000
    C49     C    0.80270   0.79317   0.50973   1.000
    C50     C    0.77545   0.88578   0.49896   1.000
    C51     C    0.81857   0.95395   0.56399   1.000
    C52     C    0.89715   0.93340   0.64058   1.000
    C53     C    0.93491   0.00000   0.69931   1.000
    C54     C    0.88916   0.09105   0.68019   1.000
    C55     C    0.81106   0.10820   0.60301   1.000
    C56     C    0.76158   0.62995   0.46655   1.000
    C57     C    0.03177   0.97960   0.77951   1.000
    C58     C    0.59239   0.06722   0.30635   1.000
    C59     C    0.67154   0.19225   0.43857   1.000
    C60     C    0.15622   0.35763   0.13519   1.000
    C61     C    0.17157   0.26399   0.12568   1.000
    C62     C    0.24539   0.23038   0.05152   1.000
    C63     C    0.30136   0.29279   0.98989   1.000
    C64     C    0.27471   0.38546   0.00000   1.000
    C65     C    0.31797   0.45355   0.93568   1.000
    C66     C    0.39637   0.43288   0.85911   1.000
    C67     C    0.43417   0.50155   0.80042   1.000
    C68     C    0.38846   0.59050   0.81949   1.000
    C69     C    0.31083   0.60779   0.89668   1.000
    C70     C    0.26014   0.12968   0.03326   1.000
    C71     C    0.53120   0.47919   0.72029   1.000
    C72     C    0.09315   0.56706   0.19337   1.000
    C73     C    0.17293   0.69214   0.06131   1.000
    C74     C    0.34358   0.14232   0.63547   1.000
    C75     C    0.32781   0.23593   0.62593   1.000
    C76     C    0.25334   0.26938   0.55182   1.000
    C77     C    0.19729   0.20683   0.49026   1.000
    C78     C    0.22454   0.11422   0.50103   1.000
    C79     C    0.18141   0.04605   0.43600   1.000
    C80     C    0.10283   0.06660   0.35940   1.000
    C81     C    0.06507   0.99787   0.30068   1.000
    C82     C    0.11082   0.90896   0.31979   1.000
    C83     C    0.18892   0.89180   0.39697   1.000
    C84     C    0.23841   0.37005   0.53343   1.000
    C85     C    0.96822   0.02040   0.22046   1.000
    C86     C    0.40760   0.93278   0.69363   1.000
    C87     C    0.32846   0.80776   0.56141   1.000
    C88     C    0.79699   0.58234   0.92636   1.000
    C89     C    0.72211   0.45865   0.04552   1.000
    C90     C    0.94670   0.43175   0.73482   1.000
    C91     C    0.81638   0.23061   0.95865   1.000
    C92     C    0.70324   0.91783   0.42605   1.000
    C93     C    0.77798   0.04169   0.54524   1.000
    C94     C    0.55271   0.06861   0.23451   1.000
    C95     C    0.68181   0.26950   0.45864   1.000
    C96     C    0.20300   0.41766   0.07362   1.000
    C97     C    0.27790   0.54135   0.95447   1.000
    C98     C    0.05329   0.56825   0.26516   1.000
    C99     C    0.18360   0.76939   0.04133   1.000
    C100    C    0.29674   0.08217   0.57393   1.000
    C101    C    0.22200   0.95831   0.45474   1.000
    C102    C    0.44727   0.93139   0.76548   1.000
    C103    C    0.31818   0.73050   0.54135   1.000
    C104    C    0.87881   0.91904   0.96694   1.000
    C105    C    0.59028   0.89880   0.98534   1.000
    C106    C    0.45231   0.60498   0.29611   1.000
    C107    C    0.40729   0.45419   0.32247   1.000
    C108    C    0.62248   0.58132   0.46683   1.000
    C109    C    0.91114   0.60145   0.48524   1.000
    C110    C    0.04614   0.89536   0.79616   1.000
    C111    C    0.09526   0.04600   0.82206   1.000
    C112    C    0.12118   0.08095   0.03305   1.000
    C113    C    0.40971   0.10120   0.00000   1.000
    C114    C    0.54769   0.39502   0.70387   1.000
    C115    C    0.59271   0.54582   0.67751   1.000
    C116    C    0.37752   0.41868   0.53315   1.000
    C117    C    0.08886   0.39856   0.51474   1.000
    C118    C    0.95382   0.10465   0.20382   1.000
    C119    C    0.90471   0.95399   0.17792   1.000
    O120    O    0.33492   0.11544   0.01663   1.000
    O121    O    0.23886   0.40156   0.03681   1.000
    O122    O    0.29634   0.41951   0.96784   1.000
    O123    O    0.28804   0.33913   0.99495   1.000
    O124    O    0.66834   0.71950   0.03876   1.000
    O125    O    0.72661   0.73842   0.97927   1.000
    O126    O    0.71196   0.66087   0.00469   1.000
    O127    O    0.19066   0.10532   0.03315   1.000
    O128    O    0.25276   0.18003   0.04239   1.000
    O129    O    0.17826   0.73076   0.05132   1.000
    O130    O    0.70206   0.50255   0.05491   1.000
    O131    O    0.70564   0.42543   0.07441   1.000
    O132    O    0.77247   0.44949   0.98482   1.000
    O133    O    0.20848   0.24718   0.08860   1.000
    O134    O    0.27337   0.26159   0.02071   1.000
    O135    O    0.82951   0.01072   0.11949   1.000
    O136    O    0.85407   0.08605   0.13244   1.000
    O137    O    0.17505   0.62591   0.06859   1.000
    O138    O    0.64282   0.55679   0.10259   1.000
    O139    O    0.70365   0.58050   0.03180   1.000
    O140    O    0.19008   0.48867   0.07474   1.000
    O141    O    0.17961   0.38764   0.10440   1.000
    O142    O    0.13516   0.56337   0.13462   1.000
    O143    O    0.22753   0.55051   0.01517   1.000
    O144    O    0.70731   0.35822   0.09395   1.000
    O145    O    0.65035   0.40086   0.14190   1.000
    O146    O    0.16389   0.31081   0.13043   1.000
    O147    O    0.14747   0.24057   0.15015   1.000
    O148    O    0.13027   0.37245   0.16388   1.000
    O149    O    0.58601   0.60163   0.14880   1.000
    O150    O    0.58473   0.53278   0.17022   1.000
    O151    O    0.93646   0.98720   0.19919   1.000
    O152    O    0.58869   0.45398   0.19003   1.000
    O153    O    0.59745   0.38210   0.20298   1.000
    O154    O    0.07322   0.56765   0.22927   1.000
    O155    O    0.51733   0.50963   0.23963   1.000
    O156    O    0.96102   0.06252   0.21214   1.000
    O157    O    0.01665   0.00913   0.26057   1.000
    O158    O    0.57255   0.06791   0.27043   1.000
    O159    O    0.09669   0.88151   0.29733   1.000
    O160    O    0.46056   0.56289   0.28790   1.000
    O161    O    0.43805   0.48750   0.30108   1.000
    O162    O    0.35366   0.58615   0.36759   1.000
    O163    O    0.08795   0.95341   0.31024   1.000
    O164    O    0.08395   0.03223   0.33004   1.000
    O165    O    0.63451   0.06352   0.36512   1.000
    O166    O    0.63026   0.87242   0.33582   1.000
    O167    O    0.14987   0.90038   0.35838   1.000
    O168    O    0.33115   0.51076   0.38077   1.000
    O169    O    0.64796   0.74060   0.34961   1.000
    O170    O    0.08521   0.10110   0.35144   1.000
    O171    O    0.14212   0.05632   0.39770   1.000
    O172    O    0.66430   0.81087   0.36928   1.000
    O173    O    0.67982   0.88775   0.39528   1.000
    O174    O    0.70942   0.74734   0.41111   1.000
    O175    O    0.20722   0.85784   0.40631   1.000
    O176    O    0.20546   0.92506   0.42586   1.000
    O177    O    0.68993   0.98883   0.42497   1.000
    O178    O    0.67408   0.12604   0.43123   1.000
    O179    O    0.72730   0.05076   0.48456   1.000
    O180    O    0.73935   0.90181   0.46250   1.000
    O181    O    0.16672   0.21904   0.46161   1.000
    O182    O    0.20171   0.00218   0.44537   1.000
    O183    O    0.20298   0.08014   0.46851   1.000
    O184    O    0.67667   0.23087   0.44861   1.000
    O185    O    0.75412   0.68029   0.45736   1.000
    O186    O    0.77467   0.76189   0.47894   1.000
    O187    O    0.27268   0.94924   0.51542   1.000
    O188    O    0.69203   0.60564   0.46669   1.000
    O189    O    0.83636   0.61570   0.47590   1.000
    O190    O    0.21092   0.16052   0.49564   1.000
    O191    O    0.22531   0.23811   0.52104   1.000
    O192    O    0.78907   0.83948   0.50434   1.000
    O193    O    0.79701   0.91987   0.53147   1.000
    O194    O    0.26064   0.09819   0.53748   1.000
    O195    O    0.83327   0.78096   0.53838   1.000
    O196    O    0.16364   0.38430   0.52409   1.000
    O197    O    0.30797   0.39436   0.53329   1.000
    O198    O    0.24588   0.31972   0.54263   1.000
    O199    O    0.32332   0.76913   0.55138   1.000
    O200    O    0.79827   0.99782   0.55462   1.000
    O201    O    0.79452   0.07494   0.57413   1.000
    O202    O    0.29057   0.25266   0.58888   1.000
    O203    O    0.66885   0.48924   0.61921   1.000
    O204    O    0.64634   0.41385   0.63240   1.000
    O205    O    0.32591   0.87396   0.56875   1.000
    O206    O    0.85786   0.94368   0.60228   1.000
    O207    O    0.31005   0.01117   0.57502   1.000
    O208    O    0.32016   0.11225   0.60470   1.000
    O209    O    0.36548   0.93648   0.63487   1.000
    O210    O    0.79275   0.14216   0.59368   1.000
    O211    O    0.85011   0.09962   0.64160   1.000
    O212    O    0.33569   0.18913   0.63070   1.000
    O213    O    0.35204   0.25940   0.65038   1.000
    O214    O    0.36973   0.12758   0.66416   1.000
    O215    O    0.91477   0.89890   0.64854   1.000
    O216    O    0.91603   0.96670   0.66994   1.000
    O217    O    0.56195   0.51250   0.69890   1.000
    O218    O    0.91204   0.04552   0.68975   1.000
    O219    O    0.90329   0.11849   0.70265   1.000
    O220    O    0.42744   0.93209   0.72955   1.000
    O221    O    0.98334   0.98980   0.73941   1.000
    O222    O    0.53945   0.43711   0.71208   1.000
    O223    O    0.48269   0.49037   0.76036   1.000
    O224    O    0.92678   0.43235   0.77071   1.000
    O225    O    0.40254   0.61790   0.79701   1.000
    O226    O    0.03896   0.93748   0.78784   1.000
    O227    O    0.06352   0.01280   0.80079   1.000
    O228    O    0.14591   0.91395   0.86754   1.000
    O229    O    0.41131   0.54603   0.80996   1.000
    O230    O    0.41527   0.46722   0.82977   1.000
    O231    O    0.86484   0.43663   0.86536   1.000
    O232    O    0.86973   0.62755   0.83610   1.000
    O233    O    0.34964   0.59914   0.85809   1.000
    O234    O    0.17047   0.98928   0.88049   1.000
    O235    O    0.85252   0.75943   0.84983   1.000
    O236    O    0.41399   0.39837   0.85118   1.000
    O237    O    0.35717   0.44321   0.89739   1.000
    O238    O    0.83611   0.68919   0.86955   1.000
    O239    O    0.82039   0.61236   0.89558   1.000
    O240    O    0.79151   0.75282   0.91138   1.000
    O241    O    0.29269   0.64178   0.90604   1.000
    O242    O    0.29436   0.57457   0.92558   1.000
    O243    O    0.80991   0.51133   0.92524   1.000
    O244    O    0.82496   0.37410   0.93140   1.000
    O245    O    0.76114   0.59844   0.96283   1.000
    O246    O    0.33166   0.28051   0.96122   1.000
    O247    O    0.29794   0.49745   0.94507   1.000
    O248    O    0.82174   0.26924   0.94866   1.000
    O249    O    0.74721   0.81998   0.95758   1.000
    O250    O    0.80932   0.89468   0.96683   1.000
    O251    O    0.66506   0.88456   0.97603   1.000
    O252    O    0.81656   0.99325   0.01400   1.000
    O253    O    0.06224   0.92580   0.95293   1.000
    O254    O    0.67229   0.98313   0.02320   1.000
    O255    O    0.41797   0.91567   0.96213   1.000
    O256    O    0.68373   0.50700   0.51387   1.000
    O257    O    0.43874   0.57432   0.45295   1.000
    O258    O    0.82806   0.51706   0.52308   1.000
    O259    O    0.08307   0.58439   0.46215   1.000
    O260    O    0.93774   0.07420   0.04706   1.000
    O261    O    0.18343   0.00675   0.98599   1.000
    O262    O    0.58201   0.08432   0.03053   1.000
    O263    O    0.32769   0.01687   0.96946   1.000
    O264    O    0.56125   0.42567   0.54703   1.000
    O265    O    0.31627   0.49300   0.48611   1.000
    O266    O    0.91692   0.41561   0.53783   1.000
    O267    O    0.17193   0.48294   0.47690   1.000
loop_
    _geom_bond_atom_site_label_1
    _geom_bond_atom_site_label_2
    _geom_bond_distance
    _geom_bond_site_symmetry_2
    _ccdc_geom_bond_type
    C113   O120      0.67288      .   S
    C70    O120      0.67288      .   S
    C64    O121      0.68958      .   S
    C96    O121      0.68958      .   S
    C64    O122      0.72802  1_554   S
    C65    O122      0.72802      .   S
    C64    O123      0.69549  1_554   S
    C63    O123      0.69549      .   S
    C35    O124      0.54362      .   S
    C6     O124      0.54362      .   S
    C35    O125      0.69761  1_554   S
    C34    O125      0.69761      .   S
    C35    O126      0.69612      .   S
    C36    O126      0.69612  1_556   S
    C112   O127      0.63240      .   S
    C70    O127      0.63240      .   S
    C70    O128      0.75654      .   S
    C62    O128      0.75654      .   S
    C99    O129      0.58824      .   S
    C73    O129      0.58824      .   S
    C89    O130      0.68376      .   S
    C37    O130      0.68376      .   S
    C89    O131      0.67679      .   S
    C41    O131      0.67679      .   S
    C89    O132      1.04586  1_554   S
    C28    O132      1.04586      .   S
    C62    O133      0.70029      .   S
    C61    O133      0.70029      .   S
    C62    O134      0.69760      .   S
    C63    O134      0.69760  1_556   S
    C0     O135      1.38378      .   S
    C119   O135      1.38378  1_565   S
    C0     O136      1.38604      .   S
    C118   O136      1.38604      .   S
    C73    O137      0.97892      .   S
    C30    O137      0.97892      .   S
    C37    O138      0.69568      .   S
    C38    O138      0.69568      .   S
    C37    O139      0.73183      .   S
    C36    O139      0.73183  1_556   S
    C96    O140      1.04991      .   S
    C30    O140      1.04991      .   S
    C96    O141      0.67662      .   S
    C60    O141      0.67662      .   S
    C30    O142      0.98606      .   S
    C72    O142      0.98606      .   S
    C30    O143      1.04586      .   S
    C97    O143      1.04586  1_556   S
    C9     O144      0.54296      .   S
    C41    O144      0.54296      .   S
    C41    O145      0.69339      .   S
    C40    O145      0.69339      .   S
    C61    O146      0.69538      .   S
    C60    O146      0.69538      .   S
    C61    O147      0.54574      .   S
    C17    O147      0.54574      .   S
    C60    O148      0.54417      .   S
    C16    O148      0.54417      .   S
    C38    O149      0.54339      .   S
    C7     O149      0.54339      .   S
    C38    O150      0.69650      .   S
    C39    O150      0.69650      .   S
    C119   O151      0.63342      .   S
    C85    O151      0.63342  1_545   S
    C40    O152      0.69805      .   S
    C39    O152      0.69805      .   S
    C40    O153      0.54471      .   S
    C8     O153      0.54471      .   S
    C72    O154      0.58826      .   S
    C98    O154      0.58826      .   S
    C39    O155      0.75658      .   S
    C43    O155      0.75658      .   S
    C118   O156      0.63607      .   S
    C85    O156      0.63607      .   S
    C85    O157      0.75659  1_655   S
    C81    O157      0.75659  1_565   S
    C94    O158      0.58826      .   S
    C58    O158      0.58826      .   S
    C26    O159      0.54470      .   S
    C82    O159      0.54470      .   S
    C43    O160      0.63611      .   S
    C106   O160      0.63611      .   S
    C43    O161      0.63334      .   S
    C107   O161      0.63334      .   S
    C106   O162      1.38449      .   S
    C3     O162      1.38449      .   S
    C81    O163      0.69802      .   S
    C82    O163      0.69802      .   S
    C81    O164      0.69658  1_565   S
    C80    O164      0.69658      .   S
    C58    O165      0.98604      .   S
    C29    O165      0.98604      .   S
    C10    O166      0.54417      .   S
    C46    O166      0.54417      .   S
    C82    O167      0.69346      .   S
    C83    O167      0.69346      .   S
    C107   O168      1.38443      .   S
    C3     O168      1.38443      .   S
    C11    O169      0.54575      .   S
    C47    O169      0.54575      .   S
    C25    O170      0.54337      .   S
    C80    O170      0.54337      .   S
    C80    O171      0.69559      .   S
    C79    O171      0.69559      .   S
    C46    O172      0.69542      .   S
    C47    O172      0.69542      .   S
    C46    O173      0.67664      .   S
    C92    O173      0.67664      .   S
    C47    O174      0.70031      .   S
    C48    O174      0.70031      .   S
    C83    O175      0.54296      .   S
    C27    O175      0.54296      .   S
    C83    O176      0.67679      .   S
    C101   O176      0.67679      .   S
    C29    O177      1.05013  1_545   S
    C92    O177      1.05013      .   S
    C29    O178      0.97886      .   S
    C59    O178      0.97886      .   S
    C29    O179      1.04578      .   S
    C93    O179      1.04578      .   S
    C92    O180      0.68495      .   S
    C50    O180      0.68495      .   S
    C24    O181      0.54361      .   S
    C77    O181      0.54361      .   S
    C79    O182      0.68378      .   S
    C101   O182      0.68378  1_565   S
    C79    O183      0.73181      .   S
    C78    O183      0.73181      .   S
    C59    O184      0.58822      .   S
    C95    O184      0.58822      .   S
    C48    O185      0.75664      .   S
    C56    O185      0.75664      .   S
    C48    O186      0.69749      .   S
    C49    O186      0.69749      .   S
    C101   O187      1.04578      .   S
    C31    O187      1.04578      .   S
    C56    O188      0.63251      .   S
    C108   O188      0.63251      .   S
    C56    O189      0.63650      .   S
    C109   O189      0.63650      .   S
    C77    O190      0.69617      .   S
    C78    O190      0.69617      .   S
    C77    O191      0.69750      .   S
    C76    O191      0.69750      .   S
    C50    O192      0.69616      .   S
    C49    O192      0.69616      .   S
    C50    O193      0.73181      .   S
    C51    O193      0.73181      .   S
    C78    O194      0.68495      .   S
    C100   O194      0.68495      .   S
    C49    O195      0.54361      .   S
    C12    O195      0.54361      .   S
    C117   O196      0.63650      .   S
    C84    O196      0.63650      .   S
    C116   O197      0.63251      .   S
    C84    O197      0.63251      .   S
    C84    O198      0.75665      .   S
    C76    O198      0.75665      .   S
    C103   O199      0.58823      .   S
    C87    O199      0.58823      .   S
    C93    O200      0.68377  1_545   S
    C51    O200      0.68377      .   S
    C93    O201      0.67679      .   S
    C55    O201      0.67679      .   S
    C76    O202      0.70031      .   S
    C75    O202      0.70031      .   S
    C1     O203      1.38442      .   S
    C115   O203      1.38442      .   S
    C1     O204      1.38447      .   S
    C114   O204      1.38447      .   S
    C87    O205      0.97886      .   S
    C31    O205      0.97886      .   S
    C51    O206      0.69559      .   S
    C52    O206      0.69559      .   S
    C100   O207      1.05012      .   S
    C31    O207      1.05012  1_565   S
    C100   O208      0.67664      .   S
    C74    O208      0.67664      .   S
    C31    O209      0.98604      .   S
    C86    O209      0.98604      .   S
    C15    O210      0.54296      .   S
    C55    O210      0.54296      .   S
    C55    O211      0.69346      .   S
    C54    O211      0.69346      .   S
    C75    O212      0.69542      .   S
    C74    O212      0.69542      .   S
    C75    O213      0.54575      .   S
    C23    O213      0.54575      .   S
    C74    O214      0.54417      .   S
    C22    O214      0.54417      .   S
    C52    O215      0.54336      .   S
    C13    O215      0.54336      .   S
    C52    O216      0.68548      .   S
    C53    O216      0.68548  1_545   S
    C115   O217      0.63335      .   S
    C71    O217      0.63335      .   S
    C54    O218      0.71277      .   S
    C53    O218      0.71277      .   S
    C54    O219      0.54471      .   S
    C14    O219      0.54471      .   S
    C86    O220      0.58826      .   S
    C102   O220      0.58826      .   S
    C53    O221      0.75303  1_545   S
    C57    O221      0.75303  1_455   S
    C114   O222      0.63612      .   S
    C71    O222      0.63612      .   S
    C71    O223      0.75657      .   S
    C67    O223      0.75657      .   S
    C90    O224      0.58826      .   S
    C44    O224      0.58826      .   S
    C20    O225      0.54470      .   S
    C68    O225      0.54470      .   S
    C57    O226      0.63607      .   S
    C110   O226      0.63607      .   S
    C57    O227      0.63342  1_565   S
    C111   O227      0.63342      .   S
    C110   O228      1.38606      .   S
    C2     O228      1.38606      .   S
    C67    O229      0.69806      .   S
    C68    O229      0.69806      .   S
    C67    O230      0.69650      .   S
    C66    O230      0.69650      .   S
    C44    O231      0.98607      .   S
    C28    O231      0.98607      .   S
    C4     O232      0.54417      .   S
    C32    O232      0.54417      .   S
    C68    O233      0.69339      .   S
    C69    O233      0.69339      .   S
    C111   O234      1.38378  1_545   S
    C2     O234      1.38378      .   S
    C5     O235      0.54574      .   S
    C33    O235      0.54574      .   S
    C19    O236      0.54338      .   S
    C66    O236      0.54338      .   S
    C66    O237      0.69568      .   S
    C65    O237      0.69568      .   S
    C32    O238      0.69538      .   S
    C33    O238      0.69538      .   S
    C32    O239      0.67661      .   S
    C88    O239      0.67661      .   S
    C33    O240      0.70028      .   S
    C34    O240      0.70028      .   S
    C69    O241      0.54297      .   S
    C21    O241      0.54297      .   S
    C69    O242      0.67679      .   S
    C97    O242      0.67679      .   S
    C28    O243      1.04990      .   S
    C88    O243      1.04990      .   S
    C28    O244      0.97892      .   S
    C45    O244      0.97892      .   S
    C88    O245      0.68503      .   S
    C36    O245      0.68503      .   S
    C18    O246      0.54361      .   S
    C63    O246      0.54361      .   S
    C65    O247      0.68376      .   S
    C97    O247      0.68376      .   S
    C45    O248      0.58823      .   S
    C91    O248      0.58823      .   S
    C34    O249      0.75654      .   S
    C42    O249      0.75654      .   S
    C42    O250      0.63240      .   S
    C104   O250      0.63240      .   S
    C42    O251      0.63652      .   S
    C105   O251      0.63652      .   S
    C104   O252      1.41600  1_556   S
    C0     O252      1.41600  1_545   S
    C104   O253      1.42902  1_655   S
    C2     O253      1.42902      .   S
    C105   O254      1.49319  1_556   S
    C0     O254      1.49319  1_545   S
    C105   O255      1.40597      .   S
    C2     O255      1.40597      .   S
    C108   O256      1.41442      .   S
    C1     O256      1.41442      .   S
    C108   O257      1.43075      .   S
    C3     O257      1.43075      .   S
    C109   O258      1.49779      .   S
    C1     O258      1.49779      .   S
    C109   O259      1.40391  1_655   S
    C3     O259      1.40391      .   S
    C112   O260      1.42903  1_455   S
    C0     O260      1.42903      .   S
    C112   O261      1.41601  1_554   S
    C2     O261      1.41601  1_565   S
    C113   O262      1.44043      .   S
    C0     O262      1.44043      .   S
    C113   O263      1.45070  1_554   S
    C2     O263      1.45070  1_565   S
    C116   O264      1.43070      .   S
    C1     O264      1.43070      .   S
    C116   O265      1.41443      .   S
    C3     O265      1.41443      .   S
    C117   O266      1.40395  1_455   S
    C1     O266      1.40395      .   S
    C117   O267      1.49774      .   S
    C3     O267      1.49774      .   S
