# CIF file generated by openbabel 2.4.90, see http://openbabel.sf.net
data_I
_chemical_name_common ''
_cell_length_a 17.267
_cell_length_b 17.302
_cell_length_c 17.294
_cell_angle_alpha 97.826
_cell_angle_beta 115.501
_cell_angle_gamma 115.506
_space_group_name_H-M_alt 'P 1'
_space_group_name_Hall 'P 1'
loop_
    _symmetry_equiv_pos_as_xyz
    x,y,z
loop_
    _atom_site_label
    _atom_site_type_symbol
    _atom_site_fract_x
    _atom_site_fract_y
    _atom_site_fract_z
    _atom_site_occupancy
    Zn0     Zn   0.88312   0.03722   0.59831   1.000
    Zn1     Zn   0.11679   0.96271   0.40159   1.000
    Zn2     Zn   0.61696   0.21620   0.15313   1.000
    Zn3     Zn   0.06219   0.84719   0.96304   1.000
    Zn4     Zn   0.56177   0.59840   0.21590   1.000
    Zn5     Zn   0.43819   0.40162   0.78395   1.000
    Zn6     Zn   0.93779   0.15282   0.03690   1.000
    Zn7     Zn   0.38294   0.78372   0.84670   1.000
