# CIF file generated by openbabel 2.4.90, see http://openbabel.sf.net
data_I
_chemical_name_common ''
_cell_length_a 17.267
_cell_length_b 17.302
_cell_length_c 17.294
_cell_angle_alpha 97.826
_cell_angle_beta 115.501
_cell_angle_gamma 115.506
_space_group_name_H-M_alt 'P 1'
_space_group_name_Hall 'P 1'
loop_
    _symmetry_equiv_pos_as_xyz
    x,y,z
loop_
    _atom_site_label
    _atom_site_type_symbol
    _atom_site_fract_x
    _atom_site_fract_y
    _atom_site_fract_z
    _atom_site_occupancy
    N0      N    0.31096   0.68881   0.06369   1.000
    N1      N    0.35829   0.25081   0.08928   1.000
    N2      N    0.64172   0.74921   0.91062   1.000
    N3      N    0.68898   0.31119   0.93628   1.000
    N4      N    0.14196   0.23098   0.89236   1.000
    N5      N    0.18894   0.25280   0.37760   1.000
    N6      N    0.16121   0.91068   0.76875   1.000
    N7      N    0.85799   0.76904   0.10754   1.000
    N8      N    0.81104   0.74720   0.62234   1.000
    N9      N    0.62525   0.93603   0.74765   1.000
    N10     N    0.12440   0.37760   0.68807   1.000
    N11     N    0.83877   0.08932   0.23120   1.000
    N12     N    0.33851   0.10734   0.74925   1.000
    N13     N    0.66147   0.89263   0.25064   1.000
    N14     N    0.37473   0.06399   0.25229   1.000
    N15     N    0.87554   0.62236   0.31181   1.000
    Zr16    Zr   0.93779   0.15282   0.03690   1.000
    O17     O    0.99710   0.17421   0.99163   1.000
    O18     O    0.87017   0.20332   0.01377   1.000
    O19     O    0.84976   0.03705   0.00360   1.000
    O20     O    0.01519   0.18304   0.13877   1.000
    Zr21    Zr   0.56177   0.59840   0.21590   1.000
    O22     O    0.64995   0.65334   0.18807   1.000
    O23     O    0.62947   0.64296   0.33382   1.000
    O24     O    0.50268   0.49415   0.17780   1.000
    O25     O    0.48444   0.62309   0.16840   1.000
    Zr26    Zr   0.38294   0.78372   0.84670   1.000
    O27     O    0.46555   0.81169   0.96258   1.000
    O28     O    0.31657   0.82193   0.82537   1.000
    O29     O    0.45512   0.83125   0.81681   1.000
    O30     O    0.30945   0.66593   0.79614   1.000
    Zr31    Zr   0.43819   0.40162   0.78395   1.000
    O32     O    0.37050   0.35705   0.66607   1.000
    O33     O    0.49729   0.50586   0.82208   1.000
    O34     O    0.35000   0.34667   0.81180   1.000
    O35     O    0.51551   0.37691   0.83149   1.000
    Zr36    Zr   0.88312   0.03722   0.59831   1.000
    O37     O    0.81679   0.99193   0.49405   1.000
    O38     O    0.80975   0.01392   0.64310   1.000
    O39     O    0.96582   0.00388   0.65322   1.000
    O40     O    0.95488   0.13899   0.62277   1.000
    Zr41    Zr   0.06219   0.84719   0.96304   1.000
    O42     O    0.98479   0.81696   0.86117   1.000
    O43     O    0.00287   0.82581   0.00831   1.000
    O44     O    0.15022   0.96296   0.99632   1.000
    O45     O    0.12980   0.79669   0.98617   1.000
    Zr46    Zr   0.61696   0.21620   0.15313   1.000
    O47     O    0.53440   0.18827   0.03727   1.000
    O48     O    0.54482   0.16870   0.18306   1.000
    O49     O    0.69047   0.33400   0.20371   1.000
    O50     O    0.68337   0.17802   0.17450   1.000
    Zr51    Zr   0.11679   0.96271   0.40159   1.000
    O52     O    0.18314   0.00801   0.50585   1.000
    O53     O    0.04505   0.86095   0.37712   1.000
    O54     O    0.19018   0.98605   0.35682   1.000
    O55     O    0.03412   0.99609   0.34670   1.000
loop_
    _geom_bond_atom_site_label_1
    _geom_bond_atom_site_label_2
    _geom_bond_distance
    _geom_bond_site_symmetry_2
    _ccdc_geom_bond_type
    Zr16   O17       1.49717  1_554   S
    N4     O17       3.49416  1_455   S
    Zr16   O18       1.69067      .   S
    N3     O18       4.14339  1_556   S
    Zr16   O19       1.72174      .   S
    N2     O19       4.21084  1_566   S
    Zr16   O20       1.51103  1_655   S
    N5     O20       3.51727      .   S
    Zr21   O22       1.72132      .   S
    N7     O22       4.20996      .   S
    Zr21   O23       1.69188      .   S
    N8     O23       4.14593      .   S
    Zr21   O24       1.49692      .   S
    N1     O24       3.49350      .   S
    Zr21   O25       1.51084      .   S
    N0     O25       3.51680      .   S
    Zr26   O27       1.72195      .   S
    N13    O27       4.21083  1_554   S
    Zr26   O28       1.49713      .   S
    N6     O28       3.49403      .   S
    Zr26   O29       1.51142      .   S
    N9     O29       3.51804      .   S
    Zr26   O30       1.69130      .   S
    N10    O30       4.14504      .   S
    Zr31   O32       1.69143      .   S
    N5     O32       4.14516      .   S
    Zr31   O33       1.49692      .   S
    N2     O33       3.49353      .   S
    Zr31   O34       1.72164      .   S
    N4     O34       4.21047      .   S
    Zr31   O35       1.51098      .   S
    N3     O35       3.51703      .   S
    Zr36   O37       1.49699  1_545   S
    N13    O37       3.49373      .   S
    Zr36   O38       1.69033      .   S
    N9     O38       4.14257  1_565   S
    Zr36   O39       1.72187      .   S
    N6     O39       4.21104  1_465   S
    Zr36   O40       1.51052      .   S
    N10    O40       3.51622  1_455   S
    Zr41   O42       1.51103  1_455   S
    N8     O42       3.51728      .   S
    Zr41   O43       1.49718  1_556   S
    N7     O43       3.49413  1_655   S
    Zr41   O44       1.72180      .   S
    N1     O44       4.21102  1_544   S
    Zr41   O45       1.69059      .   S
    N0     O45       4.14315  1_554   S
    Zr46   O47       1.72163      .   S
    N12    O47       4.21027  1_556   S
    Zr46   O48       1.51147      .   S
    N14    O48       3.51807      .   S
    Zr46   O49       1.69145      .   S
    N15    O49       4.14530      .   S
    Zr46   O50       1.49713      .   S
    N11    O50       3.49405      .   S
    Zr51   O52       1.49698  1_565   S
    N12    O52       3.49368      .   S
    Zr51   O53       1.51034      .   S
    N15    O53       3.51595  1_655   S
    Zr51   O54       1.69050      .   S
    N14    O54       4.14299  1_545   S
    Zr51   O55       1.72179      .   S
    N11    O55       4.21089  1_645   S
