# CIF file generated by openbabel 2.4.90, see http://openbabel.sf.net
data_I
_chemical_name_common ''
_cell_length_a 17.267
_cell_length_b 17.302
_cell_length_c 17.294
_cell_angle_alpha 97.826
_cell_angle_beta 115.501
_cell_angle_gamma 115.506
_space_group_name_H-M_alt 'P 1'
_space_group_name_Hall 'P 1'
loop_
    _symmetry_equiv_pos_as_xyz
    x,y,z
loop_
    _atom_site_label
    _atom_site_type_symbol
    _atom_site_fract_x
    _atom_site_fract_y
    _atom_site_fract_z
    _atom_site_occupancy
    Zr0     Zr   0.38294   0.78372   0.84670   1.000
    Zr1     Zr   0.88312   0.03722   0.59831   1.000
    Zr2     Zr   0.11679   0.96271   0.40159   1.000
    Zr3     Zr   0.61696   0.21620   0.15313   1.000
    Zr4     Zr   0.06219   0.84719   0.96304   1.000
    Zr5     Zr   0.56177   0.59840   0.21590   1.000
    Zr6     Zr   0.43819   0.40162   0.78395   1.000
    Zr7     Zr   0.93779   0.15282   0.03690   1.000
    N8      N    0.31096   0.68881   0.06369   1.000
    O9      O    0.40711   0.64779   0.12091   1.000
    O10     O    0.19742   0.74619   0.00931   1.000
    N11     N    0.35829   0.25081   0.08928   1.000
    O12     O    0.44360   0.38991   0.13969   1.000
    O13     O    0.23826   0.07873   0.02961   1.000
    N14     N    0.64172   0.74921   0.91062   1.000
    O15     O    0.55639   0.61010   0.86020   1.000
    O16     O    0.76174   0.92128   0.97030   1.000
    N17     N    0.68898   0.31119   0.93628   1.000
    O18     O    0.59283   0.35221   0.87904   1.000
    O19     O    0.80255   0.25382   0.99064   1.000
    N20     N    0.14196   0.23098   0.89236   1.000
    O21     O    0.05641   0.19559   0.94636   1.000
    O22     O    0.26181   0.29173   0.83965   1.000
    N23     N    0.18894   0.25280   0.37760   1.000
    O24     O    0.09259   0.21326   0.24064   1.000
    O25     O    0.30281   0.31248   0.54818   1.000
    N26     N    0.16121   0.91068   0.76875   1.000
    O27     O    0.25019   0.86013   0.80405   1.000
    O28     O    0.04853   0.97054   0.70813   1.000
    N29     N    0.85799   0.76904   0.10754   1.000
    O30     O    0.94356   0.80443   0.05357   1.000
    O31     O    0.73813   0.70829   0.16023   1.000
    N32     N    0.81104   0.74720   0.62234   1.000
    O33     O    0.90739   0.78674   0.75930   1.000
    O34     O    0.69717   0.68752   0.45173   1.000
    N35     N    0.62525   0.93603   0.74765   1.000
    O36     O    0.52729   0.87879   0.78692   1.000
    O37     O    0.73639   0.99062   0.68789   1.000
    N38     N    0.12440   0.37760   0.68807   1.000
    O39     O    0.02664   0.24076   0.64724   1.000
    O40     O    0.23595   0.54814   0.74557   1.000
    N41     N    0.83877   0.08932   0.23120   1.000
    O42     O    0.74977   0.13984   0.19587   1.000
    O43     O    0.95145   0.02946   0.29181   1.000
    N44     N    0.33851   0.10734   0.74925   1.000
    O45     O    0.24948   0.05331   0.61010   1.000
    O46     O    0.45184   0.16034   0.92141   1.000
    N47     N    0.66147   0.89263   0.25064   1.000
    O48     O    0.75046   0.94664   0.38979   1.000
    O49     O    0.54815   0.83965   0.07846   1.000
    N50     N    0.37473   0.06399   0.25229   1.000
    O51     O    0.47267   0.12121   0.21299   1.000
    O52     O    0.26357   0.00939   0.31205   1.000
    N53     N    0.87554   0.62236   0.31181   1.000
    O54     O    0.97330   0.75918   0.35265   1.000
    O55     O    0.76398   0.45180   0.25429   1.000
loop_
    _geom_bond_atom_site_label_1
    _geom_bond_atom_site_label_2
    _geom_bond_distance
    _geom_bond_site_symmetry_2
    _ccdc_geom_bond_type
    N8     O9        2.00763      .   S
    Zr5    O9        3.02168      .   S
    N8     O10       2.46116      .   S
    Zr4    O10       3.38118  1_556   S
    N11    O12       1.99800      .   S
    Zr5    O12       2.99384      .   S
    N11    O13       2.49644      .   S
    Zr4    O13       3.44361  1_566   S
    N14    O15       1.99803      .   S
    Zr6    O15       2.99385      .   S
    N14    O16       2.49631      .   S
    Zr7    O16       3.44349  1_544   S
    N17    O18       2.00772      .   S
    Zr6    O18       3.02197      .   S
    N17    O19       2.46130      .   S
    Zr7    O19       3.38134  1_554   S
    N20    O21       1.99839      .   S
    Zr7    O21       2.99435  1_654   S
    N20    O22       2.49604      .   S
    Zr6    O22       3.44327      .   S
    N23    O24       2.00787      .   S
    Zr7    O24       3.02205  1_655   S
    N23    O25       2.46223      .   S
    Zr6    O25       3.38285      .   S
    N26    O27       1.99830      .   S
    Zr0    O27       2.99427      .   S
    N26    O28       2.49642      .   S
    Zr1    O28       3.44373  1_645   S
    N29    O30       1.99836      .   S
    Zr4    O30       2.99436  1_456   S
    N29    O31       2.49587      .   S
    Zr5    O31       3.44264      .   S
    N32    O33       2.00788      .   S
    Zr4    O33       3.02205  1_455   S
    N32    O34       2.46254      .   S
    Zr5    O34       3.38375      .   S
    N35    O36       2.00821      .   S
    Zr0    O36       3.02284      .   S
    N35    O37       2.46085      .   S
    Zr1    O37       3.38065  1_545   S
    N38    O39       2.00741      .   S
    Zr1    O39       3.02104  1_655   S
    N38    O40       2.46225      .   S
    Zr0    O40       3.38261      .   S
    N41    O42       1.99832      .   S
    Zr3    O42       2.99426      .   S
    N41    O43       2.49633      .   S
    Zr2    O43       3.44358  1_465   S
    N44    O45       1.99813      .   S
    Zr2    O45       2.99395  1_565   S
    N44    O46       2.49580      .   S
    Zr3    O46       3.44326  1_554   S
    N47    O48       1.99816      .   S
    Zr1    O48       2.99398  1_545   S
    N47    O49       2.49602      .   S
    Zr0    O49       3.44390  1_556   S
    N50    O51       2.00818      .   S
    Zr3    O51       3.02294      .   S
    N50    O52       2.46108      .   S
    Zr2    O52       3.38100  1_565   S
    N53    O54       2.00731      .   S
    Zr2    O54       3.02069  1_455   S
    N53    O55       2.46236      .   S
    Zr3    O55       3.38289      .   S
