# CIF file generated by openbabel 2.4.90, see http://openbabel.sf.net
data_I
_chemical_name_common ''
_cell_length_a 27.92
_cell_length_b 14.179
_cell_length_c 14.88
_cell_angle_alpha 65.279
_cell_angle_beta 62.007
_cell_angle_gamma 60.493
_space_group_name_H-M_alt 'P 1'
_space_group_name_Hall 'P 1'
loop_
    _symmetry_equiv_pos_as_xyz
    x,y,z
loop_
    _atom_site_label
    _atom_site_type_symbol
    _atom_site_fract_x
    _atom_site_fract_y
    _atom_site_fract_z
    _atom_site_occupancy
    H0      H    0.35949   0.19809   0.24368   1.000
    H1      H    0.85949   0.19808   0.24368   1.000
    H2      H    0.41065   0.33144   0.14995   1.000
    H3      H    0.91066   0.33144   0.14996   1.000
    H4      H    0.06307   0.08091   0.99762   1.000
    H5      H    0.56307   0.08091   0.99762   1.000
    H6      H    0.01137   0.94629   0.09706   1.000
    H7      H    0.51137   0.94629   0.09706   1.000
    H8      H    0.34101   0.86152   0.04042   1.000
    H9      H    0.84101   0.86153   0.04042   1.000
    H10     H    0.16740   0.10377   0.13225   1.000
    H11     H    0.66740   0.10377   0.13225   1.000
    H12     H    0.08046   0.30187   0.25627   1.000
    H13     H    0.58046   0.30187   0.25627   1.000
    H14     H    0.15139   0.16851   0.35007   1.000
    H15     H    0.65139   0.16851   0.35007   1.000
    H16     H    0.10224   0.41903   0.50244   1.000
    H17     H    0.60224   0.41903   0.50244   1.000
    H18     H    0.03304   0.55367   0.40286   1.000
    H19     H    0.53304   0.55367   0.40286   1.000
    H20     H    0.29204   0.63832   0.45958   1.000
    H21     H    0.79205   0.63832   0.45959   1.000
    H22     H    0.28541   0.39640   0.36757   1.000
    H23     H    0.78542   0.39640   0.36758   1.000
    H24     H    0.14059   0.80187   0.75620   1.000
    H25     H    0.64060   0.80187   0.75620   1.000
    H26     H    0.08943   0.66853   0.84997   1.000
    H27     H    0.58943   0.66852   0.84998   1.000
    H28     H    0.43702   0.91906   0.00232   1.000
    H29     H    0.93702   0.91905   0.00233   1.000
    H30     H    0.48873   0.05366   0.90288   1.000
    H31     H    0.98873   0.05366   0.90289   1.000
    H32     H    0.15907   0.13843   0.95951   1.000
    H33     H    0.65907   0.13843   0.95951   1.000
    H34     H    0.33268   0.89618   0.86768   1.000
    H35     H    0.83269   0.89619   0.86768   1.000
    H36     H    0.41960   0.69807   0.74370   1.000
    H37     H    0.91960   0.69807   0.74370   1.000
    H38     H    0.34868   0.83144   0.64900   1.000
    H39     H    0.84868   0.83144   0.64990   1.000
    H40     H    0.39783   0.58092   0.49750   1.000
    H41     H    0.89784   0.58092   0.49750   1.000
    H42     H    0.46704   0.44628   0.59710   1.000
    H43     H    0.96704   0.44628   0.59710   1.000
    H44     H    0.20803   0.36166   0.54030   1.000
    H45     H    0.70804   0.36166   0.54034   1.000
    H46     H    0.21466   0.60358   0.63230   1.000
    H47     H    0.71467   0.60358   0.63235   1.000
    C48     C    0.43220   0.06483   0.17523   1.000
    C49     C    0.93220   0.06483   0.17524   1.000
    C50     C    0.40428   0.17322   0.19048   1.000
    C51     C    0.90428   0.17322   0.19049   1.000
    C52     C    0.43313   0.24757   0.13752   1.000
    C53     C    0.93313   0.24756   0.13752   1.000
    C54     C    0.49034   0.21505   0.06679   1.000
    C55     C    0.99034   0.21504   0.06679   1.000
    C56     C    0.01873   0.10601   0.05244   1.000
    C57     C    0.51873   0.10601   0.05244   1.000
    C58     C    0.99000   0.03107   0.10734   1.000
    C59     C    0.49000   0.03107   0.10730   1.000
    C60     C    0.25448   0.98072   0.09664   1.000
    C61     C    0.75448   0.98072   0.09664   1.000
    C62     C    0.30131   0.92185   0.02230   1.000
    C63     C    0.80131   0.92186   0.02200   1.000
    C64     C    0.20326   0.05889   0.07358   1.000
    C65     C    0.70326   0.05889   0.07357   1.000
    C66     C    0.05227   0.43515   0.32469   1.000
    C67     C    0.55227   0.43515   0.32469   1.000
    C68     C    0.08618   0.32675   0.30948   1.000
    C69     C    0.58618   0.32675   0.30940   1.000
    C70     C    0.12569   0.25239   0.36250   1.000
    C71     C    0.62569   0.25239   0.36250   1.000
    C72     C    0.13123   0.28489   0.43320   1.000
    C73     C    0.63123   0.28489   0.43320   1.000
    C74     C    0.09791   0.39394   0.44759   1.000
    C75     C    0.59791   0.39394   0.44759   1.000
    C76     C    0.05919   0.46890   0.39262   1.000
    C77     C    0.55919   0.46891   0.39262   1.000
    C78     C    0.29320   0.51928   0.40320   1.000
    C79     C    0.79320   0.51928   0.40328   1.000
    C80     C    0.27343   0.57804   0.47767   1.000
    C81     C    0.77343   0.57804   0.47768   1.000
    C82     C    0.26949   0.44120   0.42630   1.000
    C83     C    0.76950   0.44120   0.42630   1.000
    C84     C    0.06789   0.93512   0.82470   1.000
    C85     C    0.56789   0.93512   0.82470   1.000
    C86     C    0.09581   0.82674   0.80945   1.000
    C87     C    0.59581   0.82673   0.80945   1.000
    C88     C    0.06695   0.75240   0.86241   1.000
    C89     C    0.56696   0.75239   0.86242   1.000
    C90     C    0.00975   0.78492   0.93310   1.000
    C91     C    0.50975   0.78492   0.93315   1.000
    C92     C    0.48136   0.89395   0.94750   1.000
    C93     C    0.98136   0.89395   0.94750   1.000
    C94     C    0.51010   0.96889   0.89261   1.000
    C95     C    0.00000   0.96889   0.89261   1.000
    C96     C    0.24560   0.01923   0.90329   1.000
    C97     C    0.74560   0.01924   0.90329   1.000
    C98     C    0.19877   0.07810   0.97760   1.000
    C99     C    0.69878   0.07810   0.97763   1.000
    C100    C    0.29682   0.94106   0.92636   1.000
    C101    C    0.79683   0.94107   0.92635   1.000
    C102    C    0.44780   0.56480   0.67527   1.000
    C103    C    0.94780   0.56480   0.67527   1.000
    C104    C    0.41389   0.67320   0.69048   1.000
    C105    C    0.91389   0.67320   0.69048   1.000
    C106    C    0.37437   0.74756   0.63746   1.000
    C107    C    0.87438   0.74756   0.63746   1.000
    C108    C    0.36884   0.71506   0.56669   1.000
    C109    C    0.86884   0.71506   0.56669   1.000
    C110    C    0.40216   0.60601   0.55236   1.000
    C111    C    0.90217   0.60601   0.55236   1.000
    C112    C    0.44088   0.53104   0.60734   1.000
    C113    C    0.94089   0.53104   0.60734   1.000
    C114    C    0.20688   0.48070   0.59664   1.000
    C115    C    0.70688   0.48070   0.59665   1.000
    C116    C    0.22664   0.42194   0.52224   1.000
    C117    C    0.72665   0.42194   0.52225   1.000
    C118    C    0.23058   0.55878   0.57362   1.000
    C119    C    0.73059   0.55878   0.57360   1.000
loop_
    _geom_bond_atom_site_label_1
    _geom_bond_atom_site_label_2
    _geom_bond_distance
    _geom_bond_site_symmetry_2
    _ccdc_geom_bond_type
    H28    C92       1.08866  1_554   S
    H29    C93       1.08871  1_554   S
    C63    H9        1.09116      .   S
    C63    C61       1.40600      .   S
    C63    C101      1.38745  1_554   S
    C62    H8        1.08938      .   S
    C62    C60       1.40333      .   S
    C62    C100      1.39172  1_554   S
    C57    C54       1.40506      .   S
    C57    C59       1.39239      .   S
    C57    H5        1.08868  1_554   S
    C56    C55       1.40505  1_455   S
    C56    C58       1.39237  1_455   S
    C56    H4        1.08866  1_554   S
    C55    C53       1.40497      .   S
    C54    C52       1.40499      .   S
    C65    C61       1.40461  1_545   S
    C65    H11       1.08915      .   S
    C65    C99       1.39170  1_554   S
    C64    C60       1.40453  1_545   S
    C64    H10       1.08907      .   S
    C64    C98       1.39229  1_554   S
    H6     C58       1.08899  1_465   S
    H7     C59       1.08880  1_565   S
    C59    C48       1.40269      .   S
    C58    C49       1.40245      .   S
    C53    H3        1.08734      .   S
    C53    C51       1.38803      .   S
    C52    H2        1.08730      .   S
    C52    C50       1.38803      .   S
    C48    C50       1.40232      .   S
    C49    C51       1.40231      .   S
    C50    H0        1.08839      .   S
    C51    H1        1.08833      .   S
    H13    C69       1.08719      .   S
    H12    C68       1.08830      .   S
    C69    C67       1.40271      .   S
    C69    C71       1.38878      .   S
    C68    C66       1.40234      .   S
    C68    C70       1.38804      .   S
    C67    C77       1.40254      .   S
    C66    C76       1.40253      .   S
    H14    C70       1.08732      .   S
    H15    C71       1.08732      .   S
    C70    C72       1.40414      .   S
    C71    C73       1.40415      .   S
    H22    C82       1.08919      .   S
    H23    C83       1.08907      .   S
    C77    H19       1.08859      .   S
    C77    C75       1.39235      .   S
    C76    H18       1.08860      .   S
    C76    C74       1.39235      .   S
    C78    C82       1.40416      .   S
    C78    C80       1.40425      .   S
    C79    C83       1.40449      .   S
    C79    C81       1.40336      .   S
    C83    C117      1.39161      .   S
    C82    C116      1.39153      .   S
    C72    C74       1.40535      .   S
    C73    C75       1.40537      .   S
    C75    H17       1.08874      .   S
    C74    H16       1.08872      .   S
    H20    C80       1.08942      .   S
    H21    C81       1.08942      .   S
    C80    C118      1.39161      .   S
    C81    C119      1.39136      .   S
    H40    C110      1.08877      .   S
    H41    C111      1.08876      .   S
    C116   H44       1.08955      .   S
    C116   C114      1.40335      .   S
    C117   H45       1.08942      .   S
    C117   C115      1.40335      .   S
    C110   C108      1.40509      .   S
    C110   C112      1.39239      .   S
    C111   C109      1.40509      .   S
    C111   C113      1.39239      .   S
    C108   C106      1.40502      .   S
    C109   C107      1.40500      .   S
    C119   C115      1.40439      .   S
    C119   H47       1.08945      .   S
    C118   C114      1.40452      .   S
    C118   H46       1.08857      .   S
    H43    C113      1.08859      .   S
    H42    C112      1.08860      .   S
    C113   C103      1.40248      .   S
    C112   C102      1.40250      .   S
    C106   H38       1.08317      .   S
    C106   C104      1.38802      .   S
    C107   H39       1.08735      .   S
    C107   C105      1.38802      .   S
    C102   C104      1.40232      .   S
    C103   C105      1.40231      .   S
    C104   H36       1.08840      .   S
    C105   H37       1.08838      .   S
    H24    C86       1.08858      .   S
    H25    C87       1.08862      .   S
    C87    C85       1.40229      .   S
    C87    C89       1.38803      .   S
    C86    C84       1.40228      .   S
    C86    C88       1.38803      .   S
    C85    C94       1.40258      .   S
    C84    C95       1.59871      .   S
    H26    C88       1.08732      .   S
    H27    C89       1.08735      .   S
    C88    C90       1.40475      .   S
    C89    C91       1.40496      .   S
    H35    C101      1.08906      .   S
    H34    C100      1.08916      .   S
    C95    H31       1.14158  1_465   S
    C95    C93       1.21935  1_455   S
    C94    H30       1.08893  1_565   S
    C94    C92       1.39238      .   S
    C97    C101      1.40453  1_545   S
    C97    C99       1.40332      .   S
    C96    C100      1.40458  1_545   S
    C96    C98       1.40306      .   S
    C90    C93       1.40529  1_455   S
    C91    C92       1.40504      .   S
    H33    C99       1.08938      .   S
    H32    C98       1.08921      .   S
