# CIF file generated by openbabel 2.4.90, see http://openbabel.sf.net
data_I
_chemical_name_common ''
_cell_length_a 27.92
_cell_length_b 14.179
_cell_length_c 14.88
_cell_angle_alpha 65.279
_cell_angle_beta 62.007
_cell_angle_gamma 60.493
_space_group_name_H-M_alt 'P 1'
_space_group_name_Hall 'P 1'
loop_
    _symmetry_equiv_pos_as_xyz
    x,y,z
loop_
    _atom_site_label
    _atom_site_type_symbol
    _atom_site_fract_x
    _atom_site_fract_y
    _atom_site_fract_z
    _atom_site_occupancy
    Ca0     Ca   0.76922   0.97617   0.36924   1.000
    Ca1     Ca   0.44199   0.52381   0.13068   1.000
    Ca2     Ca   0.94200   0.52381   0.13068   1.000
    Ca3     Ca   0.23086   0.02379   0.63069   1.000
    Ca4     Ca   0.73087   0.02379   0.63069   1.000
    Ca5     Ca   0.05809   0.47616   0.86924   1.000
    Ca6     Ca   0.55809   0.47616   0.86924   1.000
    Ca7     Ca   0.39300   0.74999   0.24989   1.000
    Ca8     Ca   0.89301   0.75000   0.24989   1.000
    Ca9     Ca   0.10708   0.24997   0.75004   1.000
    Ca10    Ca   0.60708   0.24997   0.75004   1.000
    Ca11    Ca   0.26922   0.97617   0.36924   1.000
    C12     C    0.39887   0.98806   0.22915   1.000
    C13     C    0.89887   0.98806   0.22915   1.000
    C14     C    0.01955   0.29699   0.00000   1.000
    C15     C    0.51955   0.29699   0.00000   1.000
    C16     C    0.25878   0.96333   0.19922   1.000
    C17     C    0.75878   0.96333   0.19922   1.000
    C18     C    0.00754   0.51193   0.27074   1.000
    C19     C    0.50754   0.51193   0.27074   1.000
    C20     C    0.17115   0.20295   0.49383   1.000
    C21     C    0.67116   0.20295   0.49383   1.000
    O22     O    0.79009   0.88749   0.53490   1.000
    O23     O    0.13733   0.39302   0.72022   1.000
    O24     O    0.63733   0.39302   0.72022   1.000
    O25     O    0.14187   0.52063   0.76352   1.000
    C26     C    0.34010   0.53670   0.30067   1.000
    C27     C    0.84010   0.53670   0.30060   1.000
    C28     C    0.10123   0.01188   0.77079   1.000
    C29     C    0.60123   0.01187   0.77079   1.000
    C30     C    0.48054   0.70297   0.99371   1.000
    C31     C    0.98054   0.70297   0.99371   1.000
    C32     C    0.24131   0.03663   0.80071   1.000
    C33     C    0.74131   0.03664   0.80070   1.000
    C34     C    0.49254   0.48803   0.72921   1.000
    C35     C    0.99254   0.48803   0.72921   1.000
    C36     C    0.32892   0.79700   0.50610   1.000
    C37     C    0.82893   0.79700   0.50610   1.000
    C38     C    0.15998   0.46327   0.69925   1.000
    C39     C    0.65999   0.46327   0.69925   1.000
    O40     O    0.34643   0.02637   0.28970   1.000
    O41     O    0.84643   0.02637   0.28978   1.000
    O42     O    0.42361   0.89218   0.21075   1.000
    O43     O    0.92361   0.89218   0.21075   1.000
    O44     O    0.06499   0.27987   0.92450   1.000
    O45     O    0.56499   0.27987   0.92450   1.000
    O46     O    0.49868   0.38754   0.03494   1.000
    O47     O    0.99868   0.38754   0.03494   1.000
    O48     O    0.30605   0.89291   0.22026   1.000
    O49     O    0.80606   0.89291   0.22026   1.000
    O50     O    0.21610   0.02088   0.26341   1.000
    O51     O    0.71610   0.02088   0.26341   1.000
    O52     O    0.00449   0.47359   0.21028   1.000
    O53     O    0.50449   0.47359   0.21028   1.000
    O54     O    0.47521   0.60791   0.28890   1.000
    O55     O    0.97521   0.60791   0.28897   1.000
    O56     O    0.16713   0.22005   0.57558   1.000
    O57     O    0.66713   0.22005   0.57558   1.000
    O58     O    0.20998   0.11247   0.46504   1.000
    O59     O    0.70998   0.11247   0.46504   1.000
    O60     O    0.36275   0.60696   0.27971   1.000
    O61     O    0.86276   0.60696   0.27971   1.000
    O62     O    0.35821   0.47934   0.23641   1.000
    O63     O    0.85821   0.47934   0.23641   1.000
    O64     O    0.15366   0.97357   0.71010   1.000
    O65     O    0.65367   0.97357   0.71016   1.000
    O66     O    0.07649   0.10775   0.78919   1.000
    O67     O    0.57650   0.10775   0.78919   1.000
    O68     O    0.43509   0.72009   0.07543   1.000
    O69     O    0.93509   0.72009   0.07543   1.000
    O70     O    0.00141   0.61242   0.96499   1.000
    O71     O    0.50141   0.61242   0.96499   1.000
    O72     O    0.19403   0.10705   0.77966   1.000
    O73     O    0.69403   0.10705   0.77966   1.000
    O74     O    0.28398   0.97908   0.73652   1.000
    O75     O    0.78399   0.97909   0.73652   1.000
    O76     O    0.49560   0.52639   0.78963   1.000
    O77     O    0.99560   0.52639   0.78964   1.000
    O78     O    0.02485   0.39204   0.71100   1.000
    O79     O    0.52485   0.39204   0.71100   1.000
    O80     O    0.33296   0.77990   0.42435   1.000
    O81     O    0.83296   0.77990   0.42435   1.000
    O82     O    0.29009   0.88748   0.53400   1.000
    O83     O    0.64188   0.52062   0.76352   1.000
loop_
    _geom_bond_atom_site_label_1
    _geom_bond_atom_site_label_2
    _geom_bond_distance
    _geom_bond_site_symmetry_2
    _ccdc_geom_bond_type
    C15    O46       1.33985      .   S
    C15    O45       1.23186  1_554   S
    C14    O47       1.33988  1_455   S
    C14    O44       1.23187  1_554   S
    O46    Ca1       2.33254      .   S
    O47    Ca2       2.33256      .   S
    O68    C30       1.28170  1_554   S
    O69    C31       1.28169  1_554   S
    Ca2    O52       2.22817  1_655   S
    Ca1    O53       2.22824      .   S
    C16    O48       1.29050      .   S
    C16    O50       1.27421  1_565   S
    C17    O49       1.29048      .   S
    C17    O51       1.27423  1_565   S
    O52    C18       1.28010      .   S
    O53    C19       1.28013      .   S
    O43    C13       1.26849      .   S
    O43    Ca8       2.31987      .   S
    O42    C12       1.26848      .   S
    O42    Ca7       2.31988      .   S
    C13    O41       1.28021  1_565   S
    C12    O40       1.27980  1_565   S
    O63    C27       1.27303      .   S
    O62    C26       1.27390      .   S
    Ca7    O54       2.31980      .   S
    Ca8    O55       2.32017      .   S
    C19    O54       1.26819      .   S
    C18    O55       1.26851  1_455   S
    O61    C27       1.29088      .   S
    O60    C26       1.29054      .   S
    O40    Ca11      2.22847  1_545   S
    O41    Ca0       2.22855  1_545   S
    Ca11   O58       2.33340  1_565   S
    Ca0    O59       2.33339  1_565   S
    O80    C36       1.28150      .   S
    O81    C37       1.28150      .   S
    O59    C21       1.28785      .   S
    O58    C20       1.28784      .   S
    C21    O57       1.28162      .   S
    C20    O56       1.28161      .   S
    C37    O22       1.28791      .   S
    C36    O82       1.28323      .   S
    O82    Ca3       2.34176  1_565   S
    O22    Ca4       2.33339  1_565   S
    Ca3    O64       2.22857  1_545   S
    Ca4    O65       2.22852  1_545   S
    C39    O24       1.29049      .   S
    C39    O83       1.27397      .   S
    C38    O23       1.29050      .   S
    C38    O25       1.27398      .   S
    O64    C28       1.28046  1_565   S
    O65    C29       1.28017  1_565   S
    O79    C34       1.26855      .   S
    O79    Ca10      2.32026      .   S
    O78    C35       1.26853  1_455   S
    O78    Ca9       2.32026      .   S
    C35    O77       1.28019      .   S
    C34    O76       1.28008      .   S
    O74    C32       1.27421  1_565   S
    O75    C33       1.27413  1_565   S
    Ca10   O67       2.31984      .   S
    Ca9    O66       2.31983      .   S
    C28    O66       1.26843      .   S
    C29    O67       1.26845      .   S
    O72    C32       1.29052      .   S
    O73    C33       1.29048      .   S
    O76    Ca6       2.22820      .   S
    O77    Ca5       2.22802  1_655   S
    Ca6    O71       2.33258      .   S
    Ca5    O70       2.33260      .   S
    O71    C30       1.28793      .   S
    O70    C31       1.28794  1_455   S
    O44    Ca5       2.48307      .   S
    O44    Ca9       2.42196      .   S
    O45    Ca6       2.48307      .   S
    O45    Ca10      2.42195      .   S
    O46    Ca6       2.45606  1_554   S
    O47    Ca5       2.45599  1_654   S
    O48    Ca11      2.49368      .   S
    O48    Ca7       2.36769      .   S
    O49    Ca0       2.49366      .   S
    O49    Ca8       2.36767      .   S
    O50    Ca11      2.34788  1_545   S
    O51    Ca0       2.34784  1_545   S
    O56    Ca3       2.48322      .   S
    O56    Ca9       2.42171      .   S
    O57    Ca4       2.48322      .   S
    O57    Ca10      2.42171      .   S
    O58    Ca3       2.45582      .   S
    O59    Ca4       2.45585      .   S
    O60    Ca1       2.49281      .   S
    O60    Ca7       2.36776      .   S
    O61    Ca2       2.49280      .   S
    O61    Ca8       2.36777      .   S
    O62    Ca1       2.34798      .   S
    O63    Ca2       2.34798      .   S
    O68    Ca1       2.48304      .   S
    O68    Ca7       2.42195      .   S
    O69    Ca2       2.48302      .   S
    O69    Ca8       2.42196      .   S
    O70    Ca2       2.45595  1_456   S
    O71    Ca1       2.45603  1_556   S
    O72    Ca3       2.49358      .   S
    O72    Ca9       2.36769      .   S
    O73    Ca4       2.49357      .   S
    O73    Ca10      2.36769      .   S
    O74    Ca3       2.34786  1_565   S
    O75    Ca4       2.34791  1_565   S
    O80    Ca11      2.48325      .   S
    O80    Ca7       2.42166      .   S
    O81    Ca0       2.48325      .   S
    O81    Ca8       2.42166      .   S
    O82    Ca11      2.44377      .   S
    O22    Ca0       2.45584      .   S
    O23    Ca5       2.49265      .   S
    O23    Ca9       2.36786      .   S
    O24    Ca6       2.49265      .   S
    O24    Ca10      2.36784      .   S
    O25    Ca5       2.34800      .   S
    O83    Ca6       2.34800      .   S
