# CIF file generated by openbabel 2.4.90, see http://openbabel.sf.net
data_I
_chemical_name_common ''
_cell_length_a 27.92
_cell_length_b 14.179
_cell_length_c 14.88
_cell_angle_alpha 65.279
_cell_angle_beta 62.007
_cell_angle_gamma 60.493
_space_group_name_H-M_alt 'P 1'
_space_group_name_Hall 'P 1'
loop_
    _symmetry_equiv_pos_as_xyz
    x,y,z
loop_
    _atom_site_label
    _atom_site_type_symbol
    _atom_site_fract_x
    _atom_site_fract_y
    _atom_site_fract_z
    _atom_site_occupancy
    Zr0     Zr   0.26922   0.97617   0.36924   1.000
    Zr1     Zr   0.76922   0.97617   0.36924   1.000
    Zr2     Zr   0.44199   0.52381   0.13068   1.000
    Zr3     Zr   0.94200   0.52381   0.13068   1.000
    Zr4     Zr   0.23086   0.02379   0.63069   1.000
    Zr5     Zr   0.73087   0.02379   0.63069   1.000
    Zr6     Zr   0.05809   0.47616   0.86924   1.000
    Zr7     Zr   0.55809   0.47616   0.86924   1.000
    Zr8     Zr   0.39300   0.74999   0.24989   1.000
    Zr9     Zr   0.89301   0.75000   0.24989   1.000
    Zr10    Zr   0.10708   0.24997   0.75004   1.000
    Zr11    Zr   0.60708   0.24997   0.75004   1.000
    N12     N    0.46132   0.13945   0.12181   1.000
    N13     N    0.09196   0.36051   0.37817   1.000
    N14     N    0.25004   0.99997   0.99996   1.000
    N15     N    0.96133   0.13945   0.12181   1.000
    N16     N    0.75004   0.99998   0.99993   1.000
    N17     N    0.53876   0.86051   0.87812   1.000
    N18     N    0.25004   0.49999   0.49994   1.000
    N19     N    0.75004   0.49999   0.49996   1.000
    N20     N    0.59196   0.36051   0.37816   1.000
    N21     N    0.90811   0.63944   0.62178   1.000
    N22     N    0.40811   0.63944   0.62169   1.000
    N23     N    0.03775   0.86051   0.87812   1.000
    C24     C    0.81733   0.82146   0.48845   1.000
    O25     O    0.84016   0.79321   0.41278   1.000
    O26     O    0.78890   0.88855   0.53562   1.000
    O27     O    0.84791   0.75960   0.53377   1.000
    C28     C    0.64640   0.45897   0.72766   1.000
    O29     O    0.68157   0.47248   0.65081   1.000
    O30     O    0.63430   0.39023   0.73140   1.000
    C31     C    0.50433   0.46882   0.74328   1.000
    O32     O    0.51559   0.48505   0.78636   1.000
    O33     O    0.53515   0.39491   0.73690   1.000
    O34     O    0.47174   0.52587   0.70262   1.000
    C35     C    0.47235   0.67850   0.01138   1.000
    O36     O    0.44320   0.70677   0.08702   1.000
    O37     O    0.50105   0.61139   0.96425   1.000
    O38     O    0.49465   0.74036   0.96608   1.000
    C39     C    0.76031   0.95904   0.22763   1.000
    O40     O    0.80492   0.89025   0.23135   1.000
    O41     O    0.75683   0.97252   0.15078   1.000
    C42     C    0.02774   0.32147   0.98648   1.000
    O43     O    0.99904   0.38857   0.03465   1.000
    O44     O    0.05689   0.29320   0.91187   1.000
    O45     O    0.00544   0.25960   0.03204   1.000
    C46     C    0.31732   0.82146   0.48815   1.000
    O47     O    0.34791   0.75960   0.53360   1.000
    O48     O    0.28890   0.88855   0.53525   1.000
    O49     O    0.34015   0.79320   0.41263   1.000
    C50     C    0.99575   0.53114   0.25666   1.000
    O51     O    0.96493   0.60505   0.26305   1.000
    O52     O    0.98449   0.51492   0.21357   1.000
    O53     O    0.02834   0.47408   0.29730   1.000
    C54     C    0.88964   0.96887   0.24323   1.000
    O55     O    0.89897   0.89498   0.23677   1.000
    O56     O    0.84873   0.98507   0.28637   1.000
    O57     O    0.91403   0.02591   0.20262   1.000
    C58     C    0.35369   0.54100   0.27226   1.000
    O59     O    0.36578   0.60974   0.26853   1.000
    O60     O    0.31851   0.52750   0.34910   1.000
    C61     C    0.61047   0.03106   0.75671   1.000
    O62     O    0.65137   0.01487   0.71357   1.000
    O63     O    0.60113   0.10496   0.76316   1.000
    O64     O    0.58607   0.97403   0.79732   1.000
    C65     C    0.23977   0.04092   0.77230   1.000
    O66     O    0.19516   0.10971   0.76857   1.000
    O67     O    0.24326   0.02744   0.84914   1.000
    C68     C    0.73978   0.04093   0.77229   1.000
    O69     O    0.69517   0.10972   0.76857   1.000
    O70     O    0.74326   0.02744   0.84913   1.000
    C71     C    0.18275   0.17849   0.51148   1.000
    O72     O    0.15993   0.20675   0.58715   1.000
    O73     O    0.21118   0.11140   0.46431   1.000
    O74     O    0.15217   0.24035   0.46616   1.000
    C75     C    0.52774   0.32147   0.98648   1.000
    O76     O    0.55689   0.29320   0.91187   1.000
    O77     O    0.49904   0.38857   0.03464   1.000
    O78     O    0.50544   0.25960   0.03204   1.000
    C79     C    0.00433   0.46882   0.74328   1.000
    O80     O    0.03515   0.39491   0.73690   1.000
    O81     O    0.97174   0.52587   0.70265   1.000
    O82     O    0.01559   0.48505   0.78636   1.000
    C83     C    0.97234   0.67850   0.01138   1.000
    O84     O    0.00105   0.61139   0.96425   1.000
    O85     O    0.99440   0.74036   0.96607   1.000
    O86     O    0.94320   0.70677   0.08702   1.000
    C87     C    0.68276   0.17849   0.51148   1.000
    O88     O    0.71118   0.11141   0.46431   1.000
    O89     O    0.65217   0.24035   0.46616   1.000
    O90     O    0.65993   0.20675   0.58715   1.000
    C91     C    0.14639   0.45897   0.72766   1.000
    O92     O    0.13430   0.39023   0.73140   1.000
    O93     O    0.18156   0.47248   0.65080   1.000
    C94     C    0.85369   0.54100   0.27224   1.000
    O95     O    0.81852   0.52749   0.34910   1.000
    O96     O    0.86579   0.60974   0.26852   1.000
    C97     C    0.11046   0.03107   0.75669   1.000
    O98     O    0.10112   0.10496   0.76315   1.000
    O99     O    0.08581   0.97404   0.79731   1.000
    O100    O    0.15136   0.01487   0.71354   1.000
    C101    C    0.38963   0.96887   0.24320   1.000
    O102    O    0.39897   0.89498   0.23676   1.000
    O103    O    0.34873   0.98507   0.28633   1.000
    O104    O    0.41403   0.02591   0.20260   1.000
    C105    C    0.49575   0.53114   0.25664   1.000
    O106    O    0.46493   0.60505   0.26302   1.000
    O107    O    0.48449   0.51492   0.21356   1.000
    O108    O    0.52834   0.47408   0.29729   1.000
    C109    C    0.26031   0.95904   0.22763   1.000
    O110    O    0.30492   0.89025   0.23135   1.000
    O111    O    0.25682   0.97252   0.15079   1.000
    O112    O    0.23735   0.03717   0.73334   1.000
    O113    O    0.19623   0.13676   0.54349   1.000
    O114    O    0.76273   0.96279   0.26658   1.000
    O115    O    0.80385   0.86320   0.45644   1.000
    O116    O    0.12262   0.46273   0.76661   1.000
    O117    O    0.03635   0.36320   0.95548   1.000
    O118    O    0.46373   0.63676   0.04341   1.000
    O119    O    0.37746   0.53724   0.23332   1.000
    O120    O    0.53635   0.36320   0.95548   1.000
    O121    O    0.87747   0.53724   0.23330   1.000
    O122    O    0.96373   0.63676   0.04341   1.000
    O123    O    0.26273   0.96278   0.26658   1.000
    O124    O    0.62262   0.46273   0.76661   1.000
    O125    O    0.73736   0.03718   0.73334   1.000
    O126    O    0.69623   0.13676   0.54349   1.000
    O127    O    0.30385   0.86320   0.45618   1.000
loop_
    _geom_bond_atom_site_label_1
    _geom_bond_atom_site_label_2
    _geom_bond_distance
    _geom_bond_site_symmetry_2
    _ccdc_geom_bond_type
    C24    O25       1.13424      .   S
    Zr9    O25       2.32851      .   S
    C24    O26       1.14860      .   S
    Zr5    O26       2.31520  1_545   S
    C24    O27       1.12309      .   S
    N21    O27       2.19591      .   S
    C28    O29       1.12100      .   S
    N19    O29       2.19531      .   S
    C28    O30       1.15257      .   S
    Zr11   O30       2.33221      .   S
    C31    O32       0.97281      .   S
    Zr7    O32       2.01037      .   S
    C31    O33       0.98278      .   S
    Zr11   O33       2.06447      .   S
    C31    O34       1.10948      .   S
    N22    O34       2.18345      .   S
    C35    O36       1.13404      .   S
    Zr8    O36       2.32833      .   S
    C35    O37       1.14836  1_554   S
    Zr7    O37       2.31454      .   S
    C35    O38       1.12301  1_554   S
    N17    O38       2.19569      .   S
    C39    O40       1.15264      .   S
    Zr9    O40       2.33224      .   S
    C39    O41       1.12116      .   S
    N16    O41       2.19571  1_556   S
    C42    O43       1.15811  1_456   S
    Zr3    O43       2.32432      .   S
    C42    O44       1.12168      .   S
    Zr10   O44       2.31495      .   S
    C42    O45       1.12306  1_556   S
    N15    O45       2.19607  1_655   S
    C46    O47       1.12429      .   S
    N22    O47       2.19669      .   S
    C46    O48       1.14789      .   S
    Zr4    O48       2.31871  1_545   S
    C46    O49       1.13228      .   S
    Zr8    O49       2.32660      .   S
    C50    O51       0.98275      .   S
    Zr9    O51       2.06439      .   S
    C50    O52       0.97282      .   S
    Zr3    O52       2.01037      .   S
    C50    O53       1.10926  1_655   S
    N13    O53       2.18278      .   S
    C54    O55       0.98310      .   S
    Zr9    O55       2.06475      .   S
    C54    O56       0.97256      .   S
    Zr1    O56       2.01013      .   S
    C54    O57       1.10937  1_565   S
    N15    O57       2.18296      .   S
    C58    O59       1.15257      .   S
    Zr8    O59       2.33217      .   S
    C58    O60       1.12089      .   S
    N18    O60       2.19528      .   S
    C61    O62       0.97248      .   S
    Zr5    O62       2.01001      .   S
    C61    O63       0.98316      .   S
    Zr11   O63       2.06484      .   S
    C61    O64       1.10937  1_545   S
    N17    O64       2.18298      .   S
    C65    O66       1.15265      .   S
    Zr10   O66       2.33227      .   S
    C65    O67       1.12105      .   S
    N14    O67       2.19533  1_565   S
    C68    O69       1.15265      .   S
    Zr11   O69       2.33226      .   S
    C68    O70       1.12095      .   S
    N16    O70       2.19506  1_565   S
    C71    O72       1.13425      .   S
    Zr10   O72       2.32854      .   S
    C71    O73       1.14858      .   S
    Zr0    O73       2.31519  1_565   S
    C71    O74       1.12317      .   S
    N13    O74       2.19585      .   S
    C75    O76       1.12168      .   S
    Zr11   O76       2.31495      .   S
    C75    O77       1.15811  1_556   S
    Zr2    O77       2.32431      .   S
    C75    O78       1.12307  1_556   S
    N12    O78       2.19609      .   S
    C79    O80       0.98277      .   S
    Zr10   O80       2.06444      .   S
    C79    O81       1.10927  1_455   S
    N21    O81       2.18281      .   S
    C79    O82       0.97281      .   S
    Zr6    O82       2.01029      .   S
    C83    O84       1.14836  1_654   S
    Zr6    O84       2.31455      .   S
    C83    O85       1.11838  1_554   S
    N23    O85       2.18171  1_455   S
    C83    O86       1.13404      .   S
    Zr9    O86       2.32833      .   S
    C87    O88       1.14858      .   S
    Zr1    O88       2.31518  1_565   S
    C87    O89       1.12319      .   S
    N20    O89       2.19590      .   S
    C87    O90       1.13425      .   S
    Zr11   O90       2.32854      .   S
    C91    O92       1.15258      .   S
    Zr10   O92       2.33223      .   S
    C91    O93       1.12105      .   S
    N18    O93       2.19542      .   S
    C94    O95       1.12103      .   S
    N19    O95       2.19547      .   S
    C94    O96       1.15265      .   S
    Zr9    O96       2.33225      .   S
    C97    O98       0.98321      .   S
    Zr10   O98       2.06488      .   S
    C97    O99       1.11441  1_545   S
    N23    O99       2.19800      .   S
    C97    O100      0.97249      .   S
    Zr4    O100      2.00999      .   S
    C101   O102      0.98302      .   S
    Zr8    O102      2.06469      .   S
    C101   O103      0.97254      .   S
    Zr0    O103      2.01016      .   S
    C101   O104      1.10938  1_565   S
    N12    O104      2.18299      .   S
    C105   O106      0.98275      .   S
    Zr8    O106      2.06435      .   S
    C105   O107      0.97267      .   S
    Zr2    O107      2.01026      .   S
    C105   O108      1.10936      .   S
    N20    O108      2.18285      .   S
    C109   O110      1.15264      .   S
    Zr8    O110      2.33225      .   S
    C109   O111      1.12107      .   S
    N14    O111      2.19540  1_556   S
    Zr4    O112      1.71413      .   S
    C65    O112      0.63983      .   S
    Zr4    O113      1.76009      .   S
    C71    O113      0.65709      .   S
    Zr1    O114      1.71415      .   S
    C39    O114      0.63983      .   S
    Zr1    O115      1.76009      .   S
    C24    O115      0.65708      .   S
    Zr6    O116      1.71375      .   S
    C91    O116      0.63967      .   S
    Zr6    O117      1.75719      .   S
    C42    O117      0.65457      .   S
    Zr2    O118      1.76012      .   S
    C35    O118      0.65711      .   S
    Zr2    O119      1.71380      .   S
    C58    O119      0.63968      .   S
    C75    O120      0.65457      .   S
    Zr7    O120      1.75721      .   S
    Zr3    O121      1.71371      .   S
    C94    O121      0.63960      .   S
    Zr3    O122      1.76009      .   S
    C83    O122      0.65711      .   S
    C109   O123      0.63984      .   S
    Zr0    O123      1.71418      .   S
    C28    O124      0.63967      .   S
    Zr7    O124      1.71375      .   S
    Zr5    O125      1.71412      .   S
    C68    O125      0.63981      .   S
    Zr5    O126      1.76010      .   S
    C87    O126      0.65709      .   S
    Zr0    O127      1.75769      .   S
    C46    O127      0.65673      .   S
