# CIF file generated by openbabel 2.4.90, see http://openbabel.sf.net
data_I
_chemical_name_common ''
_cell_length_a 27.92
_cell_length_b 14.179
_cell_length_c 14.88
_cell_angle_alpha 65.279
_cell_angle_beta 62.007
_cell_angle_gamma 60.493
_space_group_name_H-M_alt 'P 1'
_space_group_name_Hall 'P 1'
loop_
    _symmetry_equiv_pos_as_xyz
    x,y,z
loop_
    _atom_site_label
    _atom_site_type_symbol
    _atom_site_fract_x
    _atom_site_fract_y
    _atom_site_fract_z
    _atom_site_occupancy
    Zr0     Zr   0.26922   0.97617   0.36924   1.000
    Zr1     Zr   0.76922   0.97617   0.36924   1.000
    Zr2     Zr   0.44199   0.52381   0.13068   1.000
    Zr3     Zr   0.94200   0.52381   0.13068   1.000
    Zr4     Zr   0.23086   0.02379   0.63069   1.000
    Zr5     Zr   0.73087   0.02379   0.63069   1.000
    Zr6     Zr   0.05809   0.47616   0.86924   1.000
    Zr7     Zr   0.55809   0.47616   0.86924   1.000
    Zr8     Zr   0.39300   0.74999   0.24989   1.000
    Zr9     Zr   0.89301   0.75000   0.24989   1.000
    Zr10    Zr   0.10708   0.24997   0.75004   1.000
    Zr11    Zr   0.60708   0.24997   0.75004   1.000
    N12     N    0.46132   0.13945   0.12181   1.000
    N13     N    0.09196   0.36051   0.37817   1.000
    N14     N    0.25004   0.99997   0.99996   1.000
    N15     N    0.96133   0.13945   0.12181   1.000
    N16     N    0.75004   0.99998   0.99993   1.000
    N17     N    0.53876   0.86051   0.87812   1.000
    N18     N    0.25004   0.49999   0.49994   1.000
    N19     N    0.75004   0.49999   0.49996   1.000
    N20     N    0.59196   0.36051   0.37816   1.000
    N21     N    0.90811   0.63944   0.62178   1.000
    N22     N    0.40811   0.63944   0.62169   1.000
    N23     N    0.03775   0.86051   0.87812   1.000
    C24     C    0.81733   0.82146   0.48845   1.000
    O25     O    0.80921   0.84975   0.44262   1.000
    O26     O    0.84016   0.79321   0.41278   1.000
    O27     O    0.79849   0.87665   0.47026   1.000
    O28     O    0.78890   0.88855   0.53562   1.000
    O29     O    0.84791   0.75960   0.53377   1.000
    C30     C    0.64640   0.45897   0.72766   1.000
    O31     O    0.68157   0.47248   0.65081   1.000
    O32     O    0.62205   0.44678   0.76120   1.000
    O33     O    0.63430   0.39023   0.73140   1.000
    O34     O    0.62319   0.47868   0.77202   1.000
    C35     C    0.50433   0.46882   0.74328   1.000
    O36     O    0.51559   0.48505   0.78636   1.000
    O37     O    0.53515   0.39491   0.73690   1.000
    O38     O    0.47174   0.52587   0.70262   1.000
    C39     C    0.47235   0.67850   0.01138   1.000
    O40     O    0.45544   0.65022   0.05722   1.000
    O41     O    0.44320   0.70677   0.08702   1.000
    O42     O    0.47202   0.62330   0.02961   1.000
    O43     O    0.50105   0.61139   0.96425   1.000
    O44     O    0.49465   0.74036   0.96608   1.000
    C45     C    0.76031   0.95904   0.22763   1.000
    O46     O    0.77398   0.94679   0.26119   1.000
    O47     O    0.80492   0.89025   0.23135   1.000
    O48     O    0.75149   0.97878   0.27198   1.000
    O49     O    0.75683   0.97252   0.15078   1.000
    C50     C    0.02774   0.32147   0.98648   1.000
    O51     O    0.99904   0.38857   0.03465   1.000
    O52     O    0.02806   0.37666   0.96928   1.000
    O53     O    0.04464   0.34974   0.94167   1.000
    O54     O    0.05689   0.29320   0.91187   1.000
    O55     O    0.00544   0.25960   0.03204   1.000
    C56     C    0.31732   0.82146   0.48815   1.000
    O57     O    0.34791   0.75960   0.53360   1.000
    O58     O    0.29849   0.87664   0.46988   1.000
    O59     O    0.28890   0.88855   0.53525   1.000
    O60     O    0.30921   0.84975   0.44247   1.000
    O61     O    0.34015   0.79320   0.41263   1.000
    C62     C    0.99575   0.53114   0.25666   1.000
    O63     O    0.96493   0.60505   0.26305   1.000
    O64     O    0.98449   0.51492   0.21357   1.000
    O65     O    0.02834   0.47408   0.29730   1.000
    C66     C    0.88964   0.96887   0.24323   1.000
    O67     O    0.89897   0.89498   0.23677   1.000
    O68     O    0.84873   0.98507   0.28637   1.000
    O69     O    0.91403   0.02591   0.20262   1.000
    C70     C    0.35369   0.54100   0.27226   1.000
    O71     O    0.37803   0.55319   0.23873   1.000
    O72     O    0.36578   0.60974   0.26853   1.000
    O73     O    0.37689   0.52129   0.22790   1.000
    O74     O    0.31851   0.52750   0.34910   1.000
    C75     C    0.61047   0.03106   0.75671   1.000
    O76     O    0.65137   0.01487   0.71357   1.000
    O77     O    0.60113   0.10496   0.76316   1.000
    O78     O    0.58607   0.97403   0.79732   1.000
    C79     C    0.23977   0.04092   0.77230   1.000
    O80     O    0.22611   0.05317   0.73874   1.000
    O81     O    0.19516   0.10971   0.76857   1.000
    O82     O    0.24326   0.02744   0.84914   1.000
    O83     O    0.24860   0.02118   0.72795   1.000
    C84     C    0.73978   0.04093   0.77229   1.000
    O85     O    0.74860   0.02118   0.72795   1.000
    O86     O    0.72611   0.05317   0.73873   1.000
    O87     O    0.69517   0.10972   0.76857   1.000
    O88     O    0.74326   0.02744   0.84913   1.000
    C89     C    0.18275   0.17849   0.51148   1.000
    O90     O    0.19087   0.15021   0.55731   1.000
    O91     O    0.15993   0.20675   0.58715   1.000
    O92     O    0.21118   0.11140   0.46431   1.000
    O93     O    0.20159   0.12331   0.52967   1.000
    O94     O    0.15217   0.24035   0.46616   1.000
    C95     C    0.52774   0.32147   0.98648   1.000
    O96     O    0.54464   0.34974   0.94167   1.000
    O97     O    0.55689   0.29320   0.91187   1.000
    O98     O    0.49904   0.38857   0.03464   1.000
    O99     O    0.52806   0.37666   0.96928   1.000
    O100    O    0.50544   0.25960   0.03204   1.000
    C101    C    0.00433   0.46882   0.74328   1.000
    O102    O    0.03515   0.39491   0.73690   1.000
    O103    O    0.97174   0.52587   0.70265   1.000
    O104    O    0.01559   0.48505   0.78636   1.000
    C105    C    0.97234   0.67850   0.01138   1.000
    O106    O    0.00105   0.61139   0.96425   1.000
    O107    O    0.97202   0.62331   0.02961   1.000
    O108    O    0.99440   0.74036   0.96607   1.000
    O109    O    0.95544   0.65022   0.05722   1.000
    O110    O    0.94320   0.70677   0.08702   1.000
    C111    C    0.68276   0.17849   0.51148   1.000
    O112    O    0.71118   0.11141   0.46431   1.000
    O113    O    0.70159   0.12331   0.52967   1.000
    O114    O    0.65217   0.24035   0.46616   1.000
    O115    O    0.69088   0.15021   0.55731   1.000
    O116    O    0.65993   0.20675   0.58715   1.000
    C117    C    0.14639   0.45897   0.72766   1.000
    O118    O    0.12205   0.44678   0.76120   1.000
    O119    O    0.13430   0.39023   0.73140   1.000
    O120    O    0.12319   0.47868   0.77202   1.000
    O121    O    0.18156   0.47248   0.65080   1.000
    C122    C    0.85369   0.54100   0.27224   1.000
    O123    O    0.87690   0.52129   0.22789   1.000
    O124    O    0.81852   0.52749   0.34910   1.000
    O125    O    0.87803   0.55319   0.23872   1.000
    O126    O    0.86579   0.60974   0.26852   1.000
    C127    C    0.11046   0.03107   0.75669   1.000
    O128    O    0.10112   0.10496   0.76315   1.000
    O129    O    0.08581   0.97404   0.79731   1.000
    O130    O    0.15136   0.01487   0.71354   1.000
    C131    C    0.38963   0.96887   0.24320   1.000
    O132    O    0.39897   0.89498   0.23676   1.000
    O133    O    0.34873   0.98507   0.28633   1.000
    O134    O    0.41403   0.02591   0.20260   1.000
    C135    C    0.49575   0.53114   0.25664   1.000
    O136    O    0.46493   0.60505   0.26302   1.000
    O137    O    0.48449   0.51492   0.21356   1.000
    O138    O    0.52834   0.47408   0.29729   1.000
    C139    C    0.26031   0.95904   0.22763   1.000
    O140    O    0.25149   0.97878   0.27198   1.000
    O141    O    0.27397   0.94679   0.26119   1.000
    O142    O    0.30492   0.89025   0.23135   1.000
    O143    O    0.25682   0.97252   0.15079   1.000
loop_
    _geom_bond_atom_site_label_1
    _geom_bond_atom_site_label_2
    _geom_bond_distance
    _geom_bond_site_symmetry_2
    _ccdc_geom_bond_type
    C24    O25       0.70994      .   S
    Zr1    O25       1.78544      .   S
    C24    O26       1.13424      .   S
    Zr9    O26       2.32851      .   S
    C24    O27       0.71635      .   S
    Zr1    O27       1.77812      .   S
    C24    O28       1.14860      .   S
    Zr5    O28       2.31520  1_545   S
    C24    O29       1.12309      .   S
    N21    O29       2.19591      .   S
    C30    O31       1.12100      .   S
    N19    O31       2.19531      .   S
    C30    O32       0.68267      .   S
    Zr7    O32       1.75487      .   S
    C30    O33       1.15257      .   S
    Zr11   O33       2.33221      .   S
    C30    O34       0.71277      .   S
    Zr7    O34       1.71757      .   S
    C35    O36       0.97281      .   S
    Zr7    O36       2.01037      .   S
    C35    O37       0.98278      .   S
    Zr11   O37       2.06447      .   S
    C35    O38       1.10948      .   S
    N22    O38       2.18345      .   S
    C39    O40       0.71002      .   S
    Zr2    O40       1.78541      .   S
    C39    O41       1.13404      .   S
    Zr8    O41       2.32833      .   S
    C39    O42       0.71634      .   S
    Zr2    O42       1.77820      .   S
    C39    O43       1.14836  1_554   S
    Zr7    O43       2.31454      .   S
    C39    O44       1.12301  1_554   S
    N17    O44       2.19569      .   S
    C45    O46       0.68268      .   S
    Zr1    O46       1.75542      .   S
    C45    O47       1.15264      .   S
    Zr9    O47       2.33224      .   S
    C45    O48       0.71305      .   S
    Zr1    O48       1.71780      .   S
    C45    O49       1.12116      .   S
    N16    O49       2.19571  1_556   S
    C50    O51       1.15811  1_456   S
    Zr3    O51       2.32432      .   S
    C50    O52       0.71781      .   S
    Zr6    O52       1.77376      .   S
    C50    O53       0.70379      .   S
    Zr6    O53       1.78406      .   S
    C50    O54       1.12168      .   S
    Zr10   O54       2.31495      .   S
    C50    O55       1.12306  1_556   S
    N15    O55       2.19607  1_655   S
    C56    O57       1.12429      .   S
    N22    O57       2.19669      .   S
    C56    O58       0.71665      .   S
    Zr0    O58       1.77405      .   S
    C56    O59       1.14789      .   S
    Zr4    O59       2.31871  1_545   S
    C56    O60       0.70799      .   S
    Zr0    O60       1.78435      .   S
    C56    O61       1.13228      .   S
    Zr8    O61       2.32660      .   S
    C62    O63       0.98275      .   S
    Zr9    O63       2.06439      .   S
    C62    O64       0.97282      .   S
    Zr3    O64       2.01037      .   S
    C62    O65       1.10926  1_655   S
    N13    O65       2.18278      .   S
    C66    O67       0.98310      .   S
    Zr9    O67       2.06475      .   S
    C66    O68       0.97256      .   S
    Zr1    O68       2.01013      .   S
    C66    O69       1.10937  1_565   S
    N15    O69       2.18296      .   S
    C70    O71       0.68267      .   S
    Zr2    O71       1.75494      .   S
    C70    O72       1.15257      .   S
    Zr8    O72       2.33217      .   S
    C70    O73       0.71280      .   S
    Zr2    O73       1.71760      .   S
    C70    O74       1.12089      .   S
    N18    O74       2.19528      .   S
    C75    O76       0.97248      .   S
    Zr5    O76       2.01001      .   S
    C75    O77       0.98316      .   S
    Zr11   O77       2.06484      .   S
    C75    O78       1.10937  1_545   S
    N17    O78       2.18298      .   S
    C79    O80       0.68270      .   S
    Zr4    O80       1.75539      .   S
    C79    O81       1.15265      .   S
    Zr10   O81       2.33227      .   S
    C79    O82       1.12105      .   S
    N14    O82       2.19533  1_565   S
    C79    O83       0.71304      .   S
    Zr4    O83       1.71780      .   S
    C84    O85       0.71302      .   S
    Zr5    O85       1.71780      .   S
    C84    O86       0.68269      .   S
    Zr5    O86       1.75537      .   S
    C84    O87       1.15265      .   S
    Zr11   O87       2.33226      .   S
    C84    O88       1.12095      .   S
    N16    O88       2.19506  1_565   S
    C89    O90       0.70995      .   S
    Zr4    O90       1.78543      .   S
    C89    O91       1.13425      .   S
    Zr10   O91       2.32854      .   S
    C89    O92       1.14858      .   S
    Zr0    O92       2.31519  1_565   S
    C89    O93       0.71635      .   S
    Zr4    O93       1.77812      .   S
    C89    O94       1.12317      .   S
    N13    O94       2.19585      .   S
    C95    O96       0.70380      .   S
    Zr7    O96       1.78407      .   S
    C95    O97       1.12168      .   S
    Zr11   O97       2.31495      .   S
    C95    O98       1.15811  1_556   S
    Zr2    O98       2.32431      .   S
    C95    O99       0.71781      .   S
    Zr7    O99       1.77379      .   S
    C95    O100      1.12307  1_556   S
    N12    O100      2.19609      .   S
    C101   O102      0.98277      .   S
    Zr10   O102      2.06444      .   S
    C101   O103      1.10927  1_455   S
    N21    O103      2.18281      .   S
    C101   O104      0.97281      .   S
    Zr6    O104      2.01029      .   S
    C105   O106      1.14836  1_654   S
    Zr6    O106      2.31455      .   S
    C105   O107      0.71633      .   S
    Zr3    O107      1.77817      .   S
    C105   O108      1.11838  1_554   S
    N23    O108      2.18171  1_455   S
    C105   O109      0.71001      .   S
    Zr3    O109      1.78539      .   S
    C105   O110      1.13404      .   S
    Zr9    O110      2.32833      .   S
    C111   O112      1.14858      .   S
    Zr1    O112      2.31518  1_565   S
    C111   O113      0.71635      .   S
    Zr5    O113      1.77814      .   S
    C111   O114      1.12319      .   S
    N20    O114      2.19590      .   S
    C111   O115      0.70996      .   S
    Zr5    O115      1.78544      .   S
    C111   O116      1.13425      .   S
    Zr11   O116      2.32854      .   S
    C117   O118      0.68267      .   S
    Zr6    O118      1.75487      .   S
    C117   O119      1.15258      .   S
    Zr10   O119      2.33223      .   S
    C117   O120      0.71277      .   S
    Zr6    O120      1.71756      .   S
    C117   O121      1.12105      .   S
    N18    O121      2.19542      .   S
    C122   O123      0.71268      .   S
    Zr3    O123      1.71753      .   S
    C122   O124      1.12103      .   S
    N19    O124      2.19547      .   S
    C122   O125      0.68264      .   S
    Zr3    O125      1.75484      .   S
    C122   O126      1.15265      .   S
    Zr9    O126      2.33225      .   S
    C127   O128      0.98321      .   S
    Zr10   O128      2.06488      .   S
    C127   O129      1.11441  1_545   S
    N23    O129      2.19800      .   S
    C127   O130      0.97249      .   S
    Zr4    O130      2.00999      .   S
    C131   O132      0.98302      .   S
    Zr8    O132      2.06469      .   S
    C131   O133      0.97254      .   S
    Zr0    O133      2.01016      .   S
    C131   O134      1.10938  1_565   S
    N12    O134      2.18299      .   S
    C135   O136      0.98275      .   S
    Zr8    O136      2.06435      .   S
    C135   O137      0.97267      .   S
    Zr2    O137      2.01026      .   S
    C135   O138      1.10936      .   S
    N20    O138      2.18285      .   S
    C139   O140      0.71306      .   S
    Zr0    O140      1.71784      .   S
    C139   O141      0.68270      .   S
    Zr0    O141      1.75544      .   S
    C139   O142      1.15264      .   S
    Zr8    O142      2.33225      .   S
    C139   O143      1.12107      .   S
    N14    O143      2.19540  1_556   S
