# CIF file generated by openbabel 2.4.90, see http://openbabel.sf.net
data_I
_chemical_name_common ''
_cell_length_a 27.92
_cell_length_b 14.179
_cell_length_c 14.88
_cell_angle_alpha 65.279
_cell_angle_beta 62.007
_cell_angle_gamma 60.493
_space_group_name_H-M_alt 'P 1'
_space_group_name_Hall 'P 1'
loop_
    _symmetry_equiv_pos_as_xyz
    x,y,z
loop_
    _atom_site_label
    _atom_site_type_symbol
    _atom_site_fract_x
    _atom_site_fract_y
    _atom_site_fract_z
    _atom_site_occupancy
    C0      C    0.26922   0.97617   0.36924   1.000
    C1      C    0.76922   0.97617   0.36924   1.000
    C2      C    0.44199   0.52381   0.13068   1.000
    C3      C    0.94200   0.52381   0.13068   1.000
    C4      C    0.23086   0.02379   0.63069   1.000
    C5      C    0.73087   0.02379   0.63069   1.000
    C6      C    0.05809   0.47616   0.86924   1.000
    C7      C    0.55809   0.47616   0.86924   1.000
    C8      C    0.39300   0.74999   0.24989   1.000
    C9      C    0.89301   0.75000   0.24989   1.000
    C10     C    0.10708   0.24997   0.75004   1.000
    C11     C    0.60708   0.24997   0.75004   1.000
    C12     C    0.35949   0.19809   0.24368   1.000
    C13     C    0.85949   0.19808   0.24368   1.000
    C14     C    0.41065   0.33144   0.14995   1.000
    C15     C    0.91066   0.33144   0.14996   1.000
    C16     C    0.06307   0.08091   0.99762   1.000
    C17     C    0.56307   0.08091   0.99762   1.000
    C18     C    0.01137   0.94629   0.09706   1.000
    C19     C    0.51137   0.94629   0.09706   1.000
    C20     C    0.34101   0.86152   0.04042   1.000
    C21     C    0.84101   0.86153   0.04042   1.000
    C22     C    0.16740   0.10377   0.13225   1.000
    C23     C    0.66740   0.10377   0.13225   1.000
    C24     C    0.08046   0.30187   0.25627   1.000
    C25     C    0.58046   0.30187   0.25627   1.000
    C26     C    0.15139   0.16851   0.35007   1.000
    C27     C    0.65139   0.16851   0.35007   1.000
    C28     C    0.10224   0.41903   0.50244   1.000
    C29     C    0.60224   0.41903   0.50244   1.000
    C30     C    0.03304   0.55367   0.40286   1.000
    C31     C    0.53304   0.55367   0.40286   1.000
    C32     C    0.29204   0.63832   0.45958   1.000
    C33     C    0.79205   0.63832   0.45959   1.000
    C34     C    0.28541   0.39640   0.36757   1.000
    C35     C    0.78542   0.39640   0.36758   1.000
    C36     C    0.14059   0.80187   0.75620   1.000
    C37     C    0.64060   0.80187   0.75620   1.000
    C38     C    0.08943   0.66853   0.84997   1.000
    C39     C    0.58943   0.66852   0.84998   1.000
    C40     C    0.43702   0.91906   0.00232   1.000
    C41     C    0.93702   0.91905   0.00233   1.000
    C42     C    0.48873   0.05366   0.90288   1.000
    C43     C    0.98873   0.05366   0.90289   1.000
    C44     C    0.15907   0.13843   0.95951   1.000
    C45     C    0.65907   0.13843   0.95951   1.000
    C46     C    0.33268   0.89618   0.86768   1.000
    C47     C    0.83269   0.89619   0.86768   1.000
    C48     C    0.41960   0.69807   0.74370   1.000
    C49     C    0.91960   0.69807   0.74370   1.000
    C50     C    0.34868   0.83144   0.64900   1.000
    C51     C    0.84868   0.83144   0.64990   1.000
    C52     C    0.39783   0.58092   0.49750   1.000
    C53     C    0.89784   0.58092   0.49750   1.000
    C54     C    0.46704   0.44628   0.59710   1.000
    C55     C    0.96704   0.44628   0.59710   1.000
    C56     C    0.20803   0.36166   0.54030   1.000
    C57     C    0.70804   0.36166   0.54034   1.000
    C58     C    0.21466   0.60358   0.63230   1.000
    C59     C    0.71467   0.60358   0.63235   1.000
    C60     C    0.39887   0.98806   0.22915   1.000
    C61     C    0.89887   0.98806   0.22915   1.000
    C62     C    0.43220   0.06483   0.17523   1.000
    C63     C    0.93220   0.06483   0.17524   1.000
    C64     C    0.40428   0.17322   0.19048   1.000
    C65     C    0.90428   0.17322   0.19049   1.000
    C66     C    0.43313   0.24757   0.13752   1.000
    C67     C    0.93313   0.24756   0.13752   1.000
    C68     C    0.49034   0.21505   0.06679   1.000
    C69     C    0.99034   0.21504   0.06679   1.000
    C70     C    0.01955   0.29699   0.00000   1.000
    C71     C    0.51955   0.29699   0.00000   1.000
    C72     C    0.01873   0.10601   0.05244   1.000
    C73     C    0.51873   0.10601   0.05244   1.000
    C74     C    0.99000   0.03107   0.10734   1.000
    C75     C    0.49000   0.03107   0.10730   1.000
    C76     C    0.25878   0.96333   0.19922   1.000
    C77     C    0.75878   0.96333   0.19922   1.000
    C78     C    0.25448   0.98072   0.09664   1.000
    C79     C    0.75448   0.98072   0.09664   1.000
    C80     C    0.30131   0.92185   0.02230   1.000
    C81     C    0.80131   0.92186   0.02200   1.000
    C82     C    0.20326   0.05889   0.07358   1.000
    C83     C    0.70326   0.05889   0.07357   1.000
    C84     C    0.00754   0.51193   0.27074   1.000
    C85     C    0.50754   0.51193   0.27074   1.000
    C86     C    0.05227   0.43515   0.32469   1.000
    C87     C    0.55227   0.43515   0.32469   1.000
    C88     C    0.08618   0.32675   0.30948   1.000
    C89     C    0.58618   0.32675   0.30940   1.000
    C90     C    0.12569   0.25239   0.36250   1.000
    C91     C    0.62569   0.25239   0.36250   1.000
    C92     C    0.13123   0.28489   0.43320   1.000
    C93     C    0.63123   0.28489   0.43320   1.000
    C94     C    0.17115   0.20295   0.49383   1.000
    C95     C    0.67116   0.20295   0.49383   1.000
    C96     C    0.09791   0.39394   0.44759   1.000
    C97     C    0.59791   0.39394   0.44759   1.000
    C98     C    0.05919   0.46890   0.39262   1.000
    C99     C    0.55919   0.46891   0.39262   1.000
    C100    C    0.34010   0.53670   0.30067   1.000
    C101    C    0.84010   0.53670   0.30060   1.000
    C102    C    0.29320   0.51928   0.40320   1.000
    C103    C    0.79320   0.51928   0.40328   1.000
    C104    C    0.27343   0.57804   0.47767   1.000
    C105    C    0.77343   0.57804   0.47768   1.000
    C106    C    0.26949   0.44120   0.42630   1.000
    C107    C    0.76950   0.44120   0.42630   1.000
    C108    C    0.10123   0.01188   0.77079   1.000
    C109    C    0.60123   0.01187   0.77079   1.000
    C110    C    0.06789   0.93512   0.82470   1.000
    C111    C    0.56789   0.93512   0.82470   1.000
    C112    C    0.09581   0.82674   0.80945   1.000
    C113    C    0.59581   0.82673   0.80945   1.000
    C114    C    0.06695   0.75240   0.86241   1.000
    C115    C    0.56696   0.75239   0.86242   1.000
    C116    C    0.00975   0.78492   0.93310   1.000
    C117    C    0.50975   0.78492   0.93315   1.000
    C118    C    0.48054   0.70297   0.99371   1.000
    C119    C    0.98054   0.70297   0.99371   1.000
    C120    C    0.48136   0.89395   0.94750   1.000
    C121    C    0.98136   0.89395   0.94750   1.000
    C122    C    0.51010   0.96889   0.89261   1.000
    C123    C    0.00000   0.96889   0.89261   1.000
    C124    C    0.24131   0.03663   0.80071   1.000
    C125    C    0.74131   0.03664   0.80070   1.000
    C126    C    0.24560   0.01923   0.90329   1.000
    C127    C    0.74560   0.01924   0.90329   1.000
    C128    C    0.19877   0.07810   0.97760   1.000
    C129    C    0.69878   0.07810   0.97763   1.000
    C130    C    0.29682   0.94106   0.92636   1.000
    C131    C    0.79683   0.94107   0.92635   1.000
    C132    C    0.49254   0.48803   0.72921   1.000
    C133    C    0.99254   0.48803   0.72921   1.000
    C134    C    0.44780   0.56480   0.67527   1.000
    C135    C    0.94780   0.56480   0.67527   1.000
    C136    C    0.41389   0.67320   0.69048   1.000
    C137    C    0.91389   0.67320   0.69048   1.000
    C138    C    0.37437   0.74756   0.63746   1.000
    C139    C    0.87438   0.74756   0.63746   1.000
    C140    C    0.36884   0.71506   0.56669   1.000
    C141    C    0.86884   0.71506   0.56669   1.000
    C142    C    0.32892   0.79700   0.50610   1.000
    C143    C    0.82893   0.79700   0.50610   1.000
    C144    C    0.40216   0.60601   0.55236   1.000
    C145    C    0.90217   0.60601   0.55236   1.000
    C146    C    0.44088   0.53104   0.60734   1.000
    C147    C    0.94089   0.53104   0.60734   1.000
    C148    C    0.15998   0.46327   0.69925   1.000
    C149    C    0.65999   0.46327   0.69925   1.000
    C150    C    0.20688   0.48070   0.59664   1.000
    C151    C    0.70688   0.48070   0.59665   1.000
    C152    C    0.22664   0.42194   0.52224   1.000
    C153    C    0.72665   0.42194   0.52225   1.000
    C154    C    0.23058   0.55878   0.57362   1.000
    C155    C    0.73059   0.55878   0.57360   1.000
    C156    C    0.34643   0.02637   0.28970   1.000
    C157    C    0.84643   0.02637   0.28978   1.000
    C158    C    0.42361   0.89218   0.21075   1.000
    C159    C    0.92361   0.89218   0.21075   1.000
    C160    C    0.06499   0.27987   0.92450   1.000
    C161    C    0.56499   0.27987   0.92450   1.000
    C162    C    0.49868   0.38754   0.03494   1.000
    C163    C    0.99868   0.38754   0.03494   1.000
    C164    C    0.30605   0.89291   0.22026   1.000
    C165    C    0.80606   0.89291   0.22026   1.000
    C166    C    0.21610   0.02088   0.26341   1.000
    C167    C    0.71610   0.02088   0.26341   1.000
    C168    C    0.00449   0.47359   0.21028   1.000
    C169    C    0.50449   0.47359   0.21028   1.000
    C170    C    0.47521   0.60791   0.28890   1.000
    C171    C    0.97521   0.60791   0.28897   1.000
    C172    C    0.16713   0.22005   0.57558   1.000
    C173    C    0.66713   0.22005   0.57558   1.000
    C174    C    0.20998   0.11247   0.46504   1.000
    C175    C    0.70998   0.11247   0.46504   1.000
    C176    C    0.36275   0.60696   0.27971   1.000
    C177    C    0.86276   0.60696   0.27971   1.000
    C178    C    0.35821   0.47934   0.23641   1.000
    C179    C    0.85821   0.47934   0.23641   1.000
    C180    C    0.15366   0.97357   0.71010   1.000
    C181    C    0.65367   0.97357   0.71016   1.000
    C182    C    0.07649   0.10775   0.78919   1.000
    C183    C    0.57650   0.10775   0.78919   1.000
    C184    C    0.43509   0.72009   0.07543   1.000
    C185    C    0.93509   0.72009   0.07543   1.000
    C186    C    0.00141   0.61242   0.96499   1.000
    C187    C    0.50141   0.61242   0.96499   1.000
    C188    C    0.19403   0.10705   0.77966   1.000
    C189    C    0.69403   0.10705   0.77966   1.000
    C190    C    0.28398   0.97908   0.73652   1.000
    C191    C    0.78399   0.97909   0.73652   1.000
    C192    C    0.49560   0.52639   0.78963   1.000
    C193    C    0.99560   0.52639   0.78964   1.000
    C194    C    0.02485   0.39204   0.71100   1.000
    C195    C    0.52485   0.39204   0.71100   1.000
    C196    C    0.33296   0.77990   0.42435   1.000
    C197    C    0.83296   0.77990   0.42435   1.000
    C198    C    0.29009   0.88748   0.53400   1.000
    C199    C    0.79009   0.88749   0.53490   1.000
    C200    C    0.13733   0.39302   0.72022   1.000
    C201    C    0.63733   0.39302   0.72022   1.000
    C202    C    0.14187   0.52063   0.76352   1.000
    C203    C    0.64188   0.52062   0.76352   1.000
    O204    O    0.50911   0.34227   0.01747   1.000
    O205    O    0.50494   0.25602   0.03339   1.000
    O206    O    0.54227   0.28843   0.96225   1.000
    O207    O    0.00911   0.34227   0.01747   1.000
    O208    O    0.00494   0.25602   0.03339   1.000
    O209    O    0.04227   0.28843   0.96225   1.000
    O210    O    0.45919   0.90650   0.97491   1.000
    O211    O    0.95919   0.90650   0.97491   1.000
    O212    O    0.82116   0.89170   0.03121   1.000
    O213    O    0.77790   0.95129   0.05932   1.000
    O214    O    0.79907   0.93146   0.97417   1.000
    O215    O    0.32116   0.89169   0.03136   1.000
    O216    O    0.27789   0.95128   0.05947   1.000
    O217    O    0.29907   0.93146   0.97433   1.000
    O218    O    0.47034   0.45568   0.08281   1.000
    O219    O    0.97034   0.45568   0.08281   1.000
    O220    O    0.50454   0.16053   0.05961   1.000
    O221    O    0.50437   0.06854   0.07987   1.000
    O222    O    0.54090   0.09346   0.02503   1.000
    O223    O    0.00454   0.16053   0.05961   1.000
    O224    O    0.00436   0.06854   0.07989   1.000
    O225    O    0.04090   0.09346   0.02503   1.000
    O226    O    0.96174   0.23130   0.10215   1.000
    O227    O    0.46173   0.23131   0.10215   1.000
    O228    O    0.72887   0.01981   0.08510   1.000
    O229    O    0.68533   0.08133   0.10291   1.000
    O230    O    0.70102   0.06850   0.02560   1.000
    O231    O    0.22887   0.01980   0.08511   1.000
    O232    O    0.18533   0.08133   0.10291   1.000
    O233    O    0.20101   0.06849   0.02559   1.000
    O234    O    0.45781   0.71153   0.03457   1.000
    O235    O    0.95781   0.71153   0.03457   1.000
    O236    O    0.25663   0.97202   0.14793   1.000
    O237    O    0.75663   0.97203   0.14793   1.000
    O238    O    0.00068   0.98868   0.10220   1.000
    O239    O    0.50068   0.98868   0.10218   1.000
    O240    O    0.46110   0.04795   0.14126   1.000
    O241    O    0.96110   0.04795   0.14129   1.000
    O242    O    0.97324   0.49870   0.17048   1.000
    O243    O    0.47324   0.49870   0.17048   1.000
    O244    O    0.92189   0.28950   0.14374   1.000
    O245    O    0.91871   0.21039   0.16401   1.000
    O246    O    0.42189   0.28950   0.14374   1.000
    O247    O    0.41870   0.21039   0.16400   1.000
    O248    O    0.41824   0.11903   0.18285   1.000
    O249    O    0.41553   0.02645   0.20219   1.000
    O250    O    0.91824   0.11903   0.18286   1.000
    O251    O    0.91553   0.02645   0.20219   1.000
    O252    O    0.38188   0.18565   0.21708   1.000
    O253    O    0.88189   0.18565   0.21709   1.000
    O254    O    0.28241   0.92812   0.20974   1.000
    O255    O    0.23744   0.99210   0.23131   1.000
    O256    O    0.78242   0.92812   0.20974   1.000
    O257    O    0.73744   0.99211   0.23131   1.000
    O258    O    0.00601   0.49276   0.24051   1.000
    O259    O    0.50601   0.49276   0.24051   1.000
    O260    O    0.91124   0.94012   0.21995   1.000
    O261    O    0.90831   0.82109   0.23032   1.000
    O262    O    0.41124   0.94012   0.21995   1.000
    O263    O    0.40831   0.82109   0.23032   1.000
    O264    O    0.87265   0.00722   0.25946   1.000
    O265    O    0.37265   0.00722   0.25942   1.000
    O266    O    0.84916   0.50802   0.26850   1.000
    O267    O    0.34915   0.50802   0.26854   1.000
    O268    O    0.43411   0.67895   0.26939   1.000
    O269    O    0.93411   0.67895   0.26943   1.000
    O270    O    0.58332   0.31431   0.28283   1.000
    O271    O    0.08332   0.31431   0.28287   1.000
    O272    O    0.49137   0.55992   0.27982   1.000
    O273    O    0.52990   0.47354   0.29771   1.000
    O274    O    0.99137   0.55992   0.27985   1.000
    O275    O    0.02990   0.47354   0.29771   1.000
    O276    O    0.85143   0.57183   0.29015   1.000
    O277    O    0.35143   0.57183   0.29019   1.000
    O278    O    0.30783   0.00127   0.32947   1.000
    O279    O    0.80783   0.00127   0.32951   1.000
    O280    O    0.81665   0.52799   0.35194   1.000
    O281    O    0.31665   0.52799   0.35193   1.000
    O282    O    0.56922   0.38095   0.31705   1.000
    O283    O    0.60594   0.28957   0.33595   1.000
    O284    O    0.06922   0.38095   0.31708   1.000
    O285    O    0.10594   0.28957   0.33599   1.000
    O286    O    0.55573   0.45203   0.35865   1.000
    O287    O    0.05573   0.45203   0.35865   1.000
    O288    O    0.13854   0.21045   0.35628   1.000
    O289    O    0.63854   0.21045   0.35628   1.000
    O290    O    0.12846   0.26864   0.39785   1.000
    O291    O    0.62846   0.26864   0.39785   1.000
    O292    O    0.27745   0.41880   0.39693   1.000
    O293    O    0.77746   0.41880   0.39694   1.000
    O294    O    0.23960   0.04432   0.41714   1.000
    O295    O    0.73960   0.04432   0.41714   1.000
    O296    O    0.54611   0.51129   0.39774   1.000
    O297    O    0.57855   0.43142   0.42010   1.000
    O298    O    0.04611   0.51129   0.39774   1.000
    O299    O    0.07855   0.43142   0.42010   1.000
    O300    O    0.28135   0.48024   0.41475   1.000
    O301    O    0.28331   0.54866   0.44043   1.000
    O302    O    0.78135   0.48024   0.41479   1.000
    O303    O    0.78332   0.54866   0.44048   1.000
    O304    O    0.33094   0.78845   0.46522   1.000
    O305    O    0.83094   0.78845   0.46522   1.000
    O306    O    0.74807   0.43157   0.47427   1.000
    O307    O    0.24807   0.43157   0.47427   1.000
    O308    O    0.11457   0.33941   0.44039   1.000
    O309    O    0.15119   0.24392   0.46351   1.000
    O310    O    0.61457   0.33942   0.44039   1.000
    O311    O    0.65120   0.24392   0.46351   1.000
    O312    O    0.60008   0.40649   0.47501   1.000
    O313    O    0.10007   0.40648   0.47501   1.000
    O314    O    0.28274   0.60818   0.46862   1.000
    O315    O    0.78274   0.60818   0.46863   1.000
    O316    O    0.69057   0.15771   0.47943   1.000
    O317    O    0.19057   0.15771   0.47943   1.000
    O318    O    0.25201   0.56841   0.52564   1.000
    O319    O    0.75201   0.56841   0.52564   1.000
    O320    O    0.66914   0.21150   0.53470   1.000
    O321    O    0.16914   0.21150   0.53470   1.000
    O322    O    0.40000   0.59346   0.52493   1.000
    O323    O    0.90000   0.59347   0.52493   1.000
    O324    O    0.80951   0.84224   0.52050   1.000
    O325    O    0.84888   0.75603   0.53639   1.000
    O326    O    0.30951   0.84224   0.52005   1.000
    O327    O    0.34888   0.75603   0.53639   1.000
    O328    O    0.21734   0.39180   0.53127   1.000
    O329    O    0.21676   0.45132   0.55944   1.000
    O330    O    0.71734   0.39180   0.53129   1.000
    O331    O    0.71677   0.45132   0.55945   1.000
    O332    O    0.26048   0.95564   0.58234   1.000
    O333    O    0.76048   0.95564   0.58279   1.000
    O334    O    0.38550   0.66053   0.55952   1.000
    O335    O    0.42152   0.56853   0.57985   1.000
    O336    O    0.88550   0.66053   0.55952   1.000
    O337    O    0.92153   0.56853   0.57985   1.000
    O338    O    0.37161   0.73131   0.60207   1.000
    O339    O    0.87161   0.73131   0.60207   1.000
    O340    O    0.71873   0.51974   0.58513   1.000
    O341    O    0.72263   0.58118   0.60297   1.000
    O342    O    0.21873   0.51974   0.58513   1.000
    O343    O    0.22262   0.58118   0.60296   1.000
    O344    O    0.18343   0.47199   0.64794   1.000
    O345    O    0.68344   0.47199   0.64795   1.000
    O346    O    0.95396   0.48866   0.60222   1.000
    O347    O    0.45396   0.48866   0.60222   1.000
    O348    O    0.94434   0.54792   0.64131   1.000
    O349    O    0.44434   0.54792   0.64131   1.000
    O350    O    0.19226   0.99868   0.67039   1.000
    O351    O    0.69227   0.99868   0.67042   1.000
    O352    O    0.36152   0.78950   0.64323   1.000
    O353    O    0.39413   0.71038   0.66397   1.000
    O354    O    0.86153   0.78950   0.64368   1.000
    O355    O    0.89413   0.71038   0.66397   1.000
    O356    O    0.43084   0.61900   0.68288   1.000
    O357    O    0.47017   0.52641   0.70224   1.000
    O358    O    0.93084   0.61900   0.68288   1.000
    O359    O    0.97017   0.52641   0.70224   1.000
    O360    O    0.41674   0.68564   0.71709   1.000
    O361    O    0.91674   0.68564   0.71709   1.000
    O362    O    0.64866   0.42814   0.70974   1.000
    O363    O    0.65093   0.49195   0.73138   1.000
    O364    O    0.14865   0.42815   0.70974   1.000
    O365    O    0.15093   0.49195   0.73138   1.000
    O366    O    0.12745   0.99272   0.74044   1.000
    O367    O    0.62745   0.99272   0.74047   1.000
    O368    O    0.50870   0.44003   0.72010   1.000
    O369    O    0.56597   0.32100   0.73052   1.000
    O370    O    0.00869   0.44003   0.72010   1.000
    O371    O    0.06596   0.32100   0.73052   1.000
    O372    O    0.99407   0.50721   0.75942   1.000
    O373    O    0.49407   0.50721   0.75942   1.000
    O374    O    0.26264   0.00785   0.76861   1.000
    O375    O    0.76265   0.00786   0.76861   1.000
    O376    O    0.59179   0.17886   0.76961   1.000
    O377    O    0.09179   0.17886   0.76961   1.000
    O378    O    0.11820   0.81430   0.78282   1.000
    O379    O    0.61820   0.81430   0.78282   1.000
    O380    O    0.08886   0.05981   0.77999   1.000
    O381    O    0.08456   0.97350   0.79774   1.000
    O382    O    0.58887   0.05981   0.77999   1.000
    O383    O    0.58456   0.97350   0.79774   1.000
    O384    O    0.21767   0.07184   0.79018   1.000
    O385    O    0.71767   0.07184   0.79018   1.000
    O386    O    0.52685   0.50128   0.82943   1.000
    O387    O    0.02685   0.50128   0.82944   1.000
    O388    O    0.74346   0.02794   0.85199   1.000
    O389    O    0.24345   0.02793   0.85200   1.000
    O390    O    0.58185   0.88092   0.81707   1.000
    O391    O    0.58138   0.78956   0.83593   1.000
    O392    O    0.08185   0.88093   0.81707   1.000
    O393    O    0.08138   0.78957   0.83593   1.000
    O394    O    0.53900   0.95200   0.85865   1.000
    O395    O    0.03395   0.95200   0.85865   1.000
    O396    O    0.07819   0.71046   0.85619   1.000
    O397    O    0.57820   0.71046   0.85620   1.000
    O398    O    0.03835   0.76866   0.89775   1.000
    O399    O    0.53835   0.76866   0.89778   1.000
    O400    O    0.81476   0.91863   0.89701   1.000
    O401    O    0.31475   0.91862   0.89702   1.000
    O402    O    0.52975   0.54429   0.91711   1.000
    O403    O    0.02975   0.54429   0.91711   1.000
    O404    O    0.99436   0.01128   0.89775   1.000
    O405    O    0.99068   0.93142   0.92005   1.000
    O406    O    0.49941   0.01128   0.89775   1.000
    O407    O    0.49573   0.93142   0.92005   1.000
    O408    O    0.77122   0.98016   0.91482   1.000
    O409    O    0.72219   0.04867   0.94046   1.000
    O410    O    0.27121   0.98015   0.91482   1.000
    O411    O    0.22219   0.04867   0.94044   1.000
    O412    O    0.99555   0.83944   0.94030   1.000
    O413    O    0.99514   0.74395   0.96340   1.000
    O414    O    0.49555   0.83944   0.94032   1.000
    O415    O    0.49514   0.74394   0.96343   1.000
    O416    O    0.67892   0.10827   0.96857   1.000
    O417    O    0.17892   0.10826   0.96855   1.000
    O418    O    0.49097   0.65770   0.97935   1.000
    O419    O    0.99097   0.65770   0.97935   1.000
    O420    O    0.06154   0.37802   0.89687   1.000
    O421    O    0.08603   0.26492   0.83727   1.000
    O422    O    0.56154   0.37802   0.89687   1.000
    O423    O    0.58604   0.26492   0.83727   1.000
    O424    O    0.52839   0.43185   0.95209   1.000
    O425    O    0.02839   0.43185   0.95209   1.000
    O426    O    0.28764   0.93454   0.29475   1.000
    O427    O    0.34953   0.82145   0.23507   1.000
    O428    O    0.78764   0.93454   0.29475   1.000
    O429    O    0.84953   0.82145   0.23507   1.000
    O430    O    0.24266   0.99852   0.31632   1.000
    O431    O    0.74266   0.99853   0.31632   1.000
    O432    O    0.19899   0.12192   0.60313   1.000
    O433    O    0.13710   0.23501   0.66281   1.000
    O434    O    0.69900   0.12192   0.60313   1.000
    O435    O    0.63710   0.23501   0.66281   1.000
    O436    O    0.22042   0.06813   0.54786   1.000
    O437    O    0.72043   0.06813   0.54786   1.000
    O438    O    0.40237   0.56538   0.20519   1.000
    O439    O    0.37788   0.67848   0.26480   1.000
    O440    O    0.90238   0.56538   0.20519   1.000
    O441    O    0.87788   0.67848   0.26480   1.000
    O442    O    0.40010   0.50157   0.18354   1.000
    O443    O    0.90011   0.50157   0.18354   1.000
    O444    O    0.43854   0.62195   0.10305   1.000
    O445    O    0.41405   0.73504   0.16266   1.000
    O446    O    0.93854   0.62195   0.10305   1.000
    O447    O    0.91405   0.73505   0.16266   1.000
    O448    O    0.97170   0.56811   0.04783   1.000
    O449    O    0.47170   0.56811   0.04783   1.000
    O450    O    0.21245   0.06542   0.70517   1.000
    O451    O    0.15055   0.17851   0.76485   1.000
    O452    O    0.71245   0.06542   0.70517   1.000
    O453    O    0.65056   0.17851   0.76485   1.000
    O454    O    0.25742   0.00143   0.68360   1.000
    O455    O    0.75743   0.00144   0.68360   1.000
    O456    O    0.30109   0.87803   0.39679   1.000
    O457    O    0.36298   0.76495   0.33712   1.000
    O458    O    0.80109   0.87804   0.39679   1.000
    O459    O    0.86298   0.76495   0.33712   1.000
    O460    O    0.27966   0.93183   0.45162   1.000
    O461    O    0.77966   0.93183   0.45207   1.000
    O462    O    0.09771   0.43459   0.79473   1.000
    O463    O    0.12220   0.32149   0.73513   1.000
    O464    O    0.59771   0.43459   0.79473   1.000
    O465    O    0.62220   0.32149   0.73513   1.000
    O466    O    0.09998   0.49839   0.81638   1.000
    O467    O    0.59998   0.49839   0.81638   1.000
loop_
    _geom_bond_atom_site_label_1
    _geom_bond_atom_site_label_2
    _geom_bond_distance
    _geom_bond_site_symmetry_2
    _ccdc_geom_bond_type
    C71    O204      0.66993      .   S
    C162   O204      0.66993      .   S
    C71    O205      0.74327      .   S
    C68    O205      0.74327      .   S
    C71    O206      0.61593  1_554   S
    C161   O206      0.61593      .   S
    C70    O207      0.66994      .   S
    C163   O207      0.66994  1_655   S
    C70    O208      0.74323      .   S
    C69    O208      0.74323  1_655   S
    C70    O209      0.61594  1_554   S
    C160   O209      0.61594      .   S
    C40    O210      0.54433  1_554   S
    C120   O210      0.54433      .   S
    C41    O211      0.54436  1_554   S
    C121   O211      0.54436      .   S
    C81    O212      0.54558      .   S
    C21    O212      0.54558      .   S
    C81    O213      0.70300      .   S
    C79    O213      0.70300      .   S
    C81    O214      0.69372  1_554   S
    C131   O214      0.69372      .   S
    C80    O215      0.54469      .   S
    C20    O215      0.54469      .   S
    C80    O216      0.70166      .   S
    C78    O216      0.70166      .   S
    C80    O217      0.69586  1_554   S
    C130   O217      0.69586      .   S
    C162   O218      1.16627      .   S
    C2     O218      1.16627      .   S
    C163   O219      1.16628      .   S
    C3     O219      1.16628      .   S
    C73    O220      0.70253      .   S
    C68    O220      0.70253      .   S
    C73    O221      0.69619      .   S
    C75    O221      0.69619      .   S
    C73    O222      0.54434      .   S
    C17    O222      0.54434  1_556   S
    C72    O223      0.70253      .   S
    C69    O223      0.70253  1_655   S
    C72    O224      0.69618      .   S
    C74    O224      0.69618  1_655   S
    C72    O225      0.54433      .   S
    C16    O225      0.54433  1_556   S
    C69    O226      0.70249      .   S
    C67    O226      0.70249      .   S
    C68    O227      0.70250      .   S
    C66    O227      0.70250      .   S
    C83    O228      0.70231      .   S
    C79    O228      0.70231  1_565   S
    C83    O229      0.54457      .   S
    C23    O229      0.54457      .   S
    C83    O230      0.69585      .   S
    C129   O230      0.69585  1_556   S
    C82    O231      0.70227      .   S
    C78    O231      0.70227  1_565   S
    C82    O232      0.54453      .   S
    C22    O232      0.54453      .   S
    C82    O233      0.69614      .   S
    C128   O233      0.69614  1_556   S
    C184   O234      0.64085      .   S
    C118   O234      0.64085  1_556   S
    C185   O235      0.64084      .   S
    C119   O235      0.64084  1_556   S
    C78    O236      0.74717      .   S
    C76    O236      0.74717      .   S
    C79    O237      0.74716      .   S
    C77    O237      0.74716      .   S
    C18    O238      0.54450      .   S
    C74    O238      0.54450  1_645   S
    C19    O239      0.54440      .   S
    C75    O239      0.54440  1_545   S
    C75    O240      0.70134      .   S
    C62    O240      0.70134      .   S
    C74    O241      0.70123      .   S
    C63    O241      0.70123      .   S
    C3     O242      1.11409      .   S
    C168   O242      1.11409  1_455   S
    C2     O243      1.11412      .   S
    C169   O243      1.11412      .   S
    C67    O244      0.54367      .   S
    C15    O244      0.54367      .   S
    C67    O245      0.69402      .   S
    C65    O245      0.69402      .   S
    C66    O246      0.54365      .   S
    C14    O246      0.54365      .   S
    C66    O247      0.69402      .   S
    C64    O247      0.69402      .   S
    C62    O248      0.70116      .   S
    C64    O248      0.70116      .   S
    C62    O249      0.75187      .   S
    C60    O249      0.75187  1_565   S
    C63    O250      0.70115      .   S
    C65    O250      0.70115      .   S
    C63    O251      0.75188      .   S
    C61    O251      0.75188  1_565   S
    C64    O252      0.54420      .   S
    C12    O252      0.54420      .   S
    C65    O253      0.54416      .   S
    C13    O253      0.54416      .   S
    C76    O254      0.64525      .   S
    C164   O254      0.64525      .   S
    C76    O255      0.63711      .   S
    C166   O255      0.63711  1_545   S
    C77    O256      0.64524      .   S
    C165   O256      0.64524      .   S
    C77    O257      0.63711      .   S
    C167   O257      0.63711  1_545   S
    C168   O258      0.64005      .   S
    C84    O258      0.64005      .   S
    C169   O259      0.64007      .   S
    C85    O259      0.64007      .   S
    C159   O260      0.63424      .   S
    C61    O260      0.63424      .   S
    C159   O261      1.15993      .   S
    C9     O261      1.15993      .   S
    C158   O262      0.63424      .   S
    C60    O262      0.63424      .   S
    C158   O263      1.15994      .   S
    C8     O263      1.15994      .   S
    C61    O264      0.64010  1_565   S
    C157   O264      0.64010      .   S
    C60    O265      0.63990  1_565   S
    C156   O265      0.63990      .   S
    C179   O266      0.63651      .   S
    C101   O266      0.63651      .   S
    C178   O267      0.63695      .   S
    C100   O267      0.63695      .   S
    C8     O268      1.15990      .   S
    C170   O268      1.15990      .   S
    C9     O269      1.16008      .   S
    C171   O269      1.16008      .   S
    C25    O270      0.54359      .   S
    C89    O270      0.54359      .   S
    C24    O271      0.54415      .   S
    C88    O271      0.54415      .   S
    C85    O272      0.63410      .   S
    C170   O272      0.63410      .   S
    C85    O273      0.75170      .   S
    C87    O273      0.75170      .   S
    C84    O274      0.63426  1_455   S
    C171   O274      0.63426      .   S
    C84    O275      0.75170      .   S
    C86    O275      0.75170      .   S
    C177   O276      0.64544      .   S
    C101   O276      0.64544      .   S
    C176   O277      0.64527      .   S
    C100   O277      0.64527      .   S
    C156   O278      1.11423      .   S
    C0     O278      1.11423  1_565   S
    C157   O279      1.11427      .   S
    C1     O279      1.11427  1_565   S
    C101   O280      0.74748      .   S
    C103   O280      0.74748      .   S
    C100   O281      0.74688      .   S
    C102   O281      0.74688      .   S
    C89    O282      0.70135      .   S
    C87    O282      0.70135      .   S
    C89    O283      0.69439      .   S
    C91    O283      0.69439      .   S
    C88    O284      0.70117      .   S
    C86    O284      0.70117      .   S
    C88    O285      0.69402      .   S
    C90    O285      0.69402      .   S
    C87    O286      0.70127      .   S
    C99    O286      0.70127      .   S
    C86    O287      0.70126      .   S
    C98    O287      0.70126      .   S
    C26    O288      0.54366      .   S
    C90    O288      0.54366      .   S
    C27    O289      0.54366      .   S
    C91    O289      0.54366      .   S
    C90    O290      0.70207      .   S
    C92    O290      0.70207      .   S
    C91    O291      0.70208      .   S
    C93    O291      0.70208      .   S
    C34    O292      0.54460      .   S
    C106   O292      0.54460      .   S
    C35    O293      0.54454      .   S
    C107   O293      0.54454      .   S
    C0     O294      1.16670  1_565   S
    C174   O294      1.16670      .   S
    C1     O295      1.16669  1_565   S
    C175   O295      1.16669      .   S
    C99    O296      0.54430      .   S
    C31    O296      0.54430      .   S
    C99    O297      0.69617      .   S
    C97    O297      0.69617      .   S
    C98    O298      0.54430      .   S
    C30    O298      0.54430      .   S
    C98    O299      0.69618      .   S
    C96    O299      0.69618      .   S
    C102   O300      0.70208      .   S
    C106   O300      0.70208      .   S
    C102   O301      0.70213      .   S
    C104   O301      0.70213      .   S
    C103   O302      0.70225      .   S
    C107   O302      0.70225      .   S
    C103   O303      0.70168      .   S
    C105   O303      0.70168      .   S
    C196   O304      0.64075      .   S
    C142   O304      0.64075      .   S
    C197   O305      0.64075      .   S
    C143   O305      0.64075      .   S
    C107   O306      0.69581      .   S
    C153   O306      0.69581      .   S
    C106   O307      0.69576      .   S
    C152   O307      0.69576      .   S
    C92    O308      0.70268      .   S
    C96    O308      0.70268      .   S
    C92    O309      0.74123      .   S
    C94    O309      0.74123      .   S
    C93    O310      0.70268      .   S
    C97    O310      0.70268      .   S
    C93    O311      0.74123      .   S
    C95    O311      0.74123      .   S
    C97    O312      0.54437      .   S
    C29    O312      0.54437      .   S
    C96    O313      0.54436      .   S
    C28    O313      0.54436      .   S
    C32    O314      0.54471      .   S
    C104   O314      0.54471      .   S
    C33    O315      0.54471      .   S
    C105   O315      0.54471      .   S
    C175   O316      0.64393      .   S
    C95    O316      0.64393      .   S
    C174   O317      0.64392      .   S
    C94    O317      0.64392      .   S
    C104   O318      0.69581      .   S
    C154   O318      0.69581      .   S
    C105   O319      0.69568      .   S
    C155   O319      0.69568      .   S
    C95    O320      0.64081      .   S
    C173   O320      0.64081      .   S
    C94    O321      0.64080      .   S
    C172   O321      0.64080      .   S
    C52    O322      0.54438      .   S
    C144   O322      0.54438      .   S
    C53    O323      0.54438      .   S
    C145   O323      0.54438      .   S
    C143   O324      0.64395      .   S
    C199   O324      0.64395      .   S
    C143   O325      0.74099      .   S
    C141   O325      0.74099      .   S
    C142   O326      0.64161      .   S
    C198   O326      0.64161      .   S
    C142   O327      0.74098      .   S
    C140   O327      0.74098      .   S
    C152   O328      0.54477      .   S
    C56    O328      0.54477      .   S
    C152   O329      0.70167      .   S
    C150   O329      0.70167      .   S
    C153   O330      0.54471      .   S
    C57    O330      0.54471      .   S
    C153   O331      0.70167      .   S
    C151   O331      0.70167      .   S
    C198   O332      1.17088      .   S
    C4     O332      1.17088  1_545   S
    C199   O333      1.16669      .   S
    C5     O333      1.16669  1_545   S
    C144   O334      0.70254      .   S
    C140   O334      0.70254      .   S
    C144   O335      0.69619      .   S
    C146   O335      0.69619      .   S
    C145   O336      0.70254      .   S
    C141   O336      0.70254      .   S
    C145   O337      0.69620      .   S
    C147   O337      0.69620      .   S
    C140   O338      0.70251      .   S
    C138   O338      0.70251      .   S
    C141   O339      0.70250      .   S
    C139   O339      0.70250      .   S
    C155   O340      0.70219      .   S
    C151   O340      0.70219      .   S
    C155   O341      0.54472      .   S
    C59    O341      0.54472      .   S
    C154   O342      0.70226      .   S
    C150   O342      0.70226      .   S
    C154   O343      0.54428      .   S
    C58    O343      0.54428      .   S
    C150   O344      0.74719      .   S
    C148   O344      0.74719      .   S
    C151   O345      0.74715      .   S
    C149   O345      0.74715      .   S
    C55    O346      0.54429      .   S
    C147   O346      0.54429      .   S
    C54    O347      0.54430      .   S
    C146   O347      0.54430      .   S
    C147   O348      0.70124      .   S
    C135   O348      0.70124      .   S
    C146   O349      0.70125      .   S
    C134   O349      0.70125      .   S
    C4     O350      1.11429  1_545   S
    C180   O350      1.11429      .   S
    C5     O351      1.11426  1_545   S
    C181   O351      1.11426      .   S
    C138   O352      0.54159      .   S
    C50    O352      0.54159      .   S
    C138   O353      0.69401      .   S
    C136   O353      0.69401      .   S
    C139   O354      0.54368      .   S
    C51    O354      0.54368      .   S
    C139   O355      0.69401      .   S
    C137   O355      0.69401      .   S
    C134   O356      0.70116      .   S
    C136   O356      0.70116      .   S
    C134   O357      0.75171      .   S
    C132   O357      0.75171      .   S
    C135   O358      0.70116      .   S
    C137   O358      0.70116      .   S
    C135   O359      0.75171      .   S
    C133   O359      0.75171      .   S
    C136   O360      0.54420      .   S
    C48    O360      0.54420      .   S
    C137   O361      0.54419      .   S
    C49    O361      0.54419      .   S
    C149   O362      0.64525      .   S
    C201   O362      0.64525      .   S
    C149   O363      0.63699      .   S
    C203   O363      0.63699      .   S
    C148   O364      0.64525      .   S
    C200   O364      0.64525      .   S
    C148   O365      0.63699      .   S
    C202   O365      0.63699      .   S
    C180   O366      0.64023      .   S
    C108   O366      0.64023  1_545   S
    C181   O367      0.64008      .   S
    C109   O367      0.64008  1_545   S
    C195   O368      0.63427      .   S
    C132   O368      0.63427      .   S
    C195   O369      1.16013      .   S
    C11    O369      1.16013      .   S
    C194   O370      0.63426      .   S
    C133   O370      0.63426  1_655   S
    C194   O371      1.16013      .   S
    C10    O371      1.16013      .   S
    C133   O372      0.64010      .   S
    C193   O372      0.64010      .   S
    C132   O373      0.64004      .   S
    C192   O373      0.64004      .   S
    C190   O374      0.63711  1_565   S
    C124   O374      0.63711      .   S
    C191   O375      0.63706  1_565   S
    C125   O375      0.63706      .   S
    C11    O376      1.15992      .   S
    C183   O376      1.15992      .   S
    C10    O377      1.15991      .   S
    C182   O377      1.15991      .   S
    C36    O378      0.54429      .   S
    C112   O378      0.54429      .   S
    C37    O379      0.54431      .   S
    C113   O379      0.54431      .   S
    C108   O380      0.63421      .   S
    C182   O380      0.63421      .   S
    C108   O381      0.75187  1_545   S
    C110   O381      0.75187      .   S
    C109   O382      0.63422      .   S
    C183   O382      0.63422      .   S
    C109   O383      0.75188  1_545   S
    C111   O383      0.75188      .   S
    C188   O384      0.64526      .   S
    C124   O384      0.64526      .   S
    C189   O385      0.64524      .   S
    C125   O385      0.64524      .   S
    C192   O386      1.11410      .   S
    C7     O386      1.11410      .   S
    C193   O387      1.11401  1_655   S
    C6     O387      1.11401      .   S
    C125   O388      0.74722      .   S
    C127   O388      0.74722      .   S
    C124   O389      0.74714      .   S
    C126   O389      0.74714      .   S
    C113   O390      0.70115      .   S
    C111   O390      0.70115      .   S
    C113   O391      0.69402      .   S
    C115   O391      0.69402      .   S
    C112   O392      0.70114      .   S
    C110   O392      0.70114      .   S
    C112   O393      0.69402      .   S
    C114   O393      0.69402      .   S
    C111   O394      0.70129      .   S
    C122   O394      0.70129      .   S
    C110   O395      0.79936      .   S
    C123   O395      0.79936      .   S
    C38    O396      0.54366      .   S
    C114   O396      0.54366      .   S
    C39    O397      0.54367      .   S
    C115   O397      0.54367      .   S
    C114   O398      0.70238      .   S
    C116   O398      0.70238      .   S
    C115   O399      0.70248      .   S
    C117   O399      0.70248      .   S
    C47    O400      0.54453      .   S
    C131   O400      0.54453      .   S
    C46    O401      0.54458      .   S
    C130   O401      0.54458      .   S
    C7     O402      1.16629      .   S
    C187   O402      1.16629      .   S
    C6     O403      1.16630      .   S
    C186   O403      1.16630      .   S
    C123   O404      0.57079  1_465   S
    C43    O404      0.57079      .   S
    C123   O405      0.60968  1_455   S
    C121   O405      0.60968      .   S
    C122   O406      0.54447  1_565   S
    C42    O406      0.54447      .   S
    C122   O407      0.69619      .   S
    C120   O407      0.69619      .   S
    C127   O408      0.70227  1_545   S
    C131   O408      0.70227      .   S
    C127   O409      0.70166      .   S
    C129   O409      0.70166      .   S
    C126   O410      0.70229  1_545   S
    C130   O410      0.70229      .   S
    C126   O411      0.70153      .   S
    C128   O411      0.70153      .   S
    C116   O412      0.70265  1_455   S
    C121   O412      0.70265      .   S
    C116   O413      0.74078  1_455   S
    C119   O413      0.74078      .   S
    C117   O414      0.70252      .   S
    C120   O414      0.70252      .   S
    C117   O415      0.74081      .   S
    C118   O415      0.74081      .   S
    C45    O416      0.54469      .   S
    C129   O416      0.54469      .   S
    C44    O417      0.54460      .   S
    C128   O417      0.54460      .   S
    C187   O418      0.64397      .   S
    C118   O418      0.64397      .   S
    C186   O419      0.64397  1_455   S
    C119   O419      0.64397      .   S
    C160   O420      1.24153      .   S
    C6     O420      1.24153      .   S
    C160   O421      1.21098      .   S
    C10    O421      1.21098      .   S
    C161   O422      1.24154      .   S
    C7     O422      1.24154      .   S
    C161   O423      1.21098      .   S
    C11    O423      1.21098      .   S
    C162   O424      1.22803  1_554   S
    C7     O424      1.22803      .   S
    C163   O425      1.22800  1_654   S
    C6     O425      1.22800      .   S
    C164   O426      1.24684      .   S
    C0     O426      1.24684      .   S
    C164   O427      1.18384      .   S
    C8     O427      1.18384      .   S
    C165   O428      1.24683      .   S
    C1     O428      1.24683      .   S
    C165   O429      1.18384      .   S
    C9     O429      1.18384      .   S
    C166   O430      1.17394  1_545   S
    C0     O430      1.17394      .   S
    C167   O431      1.17392  1_545   S
    C1     O431      1.17392      .   S
    C172   O432      1.24161      .   S
    C4     O432      1.24161      .   S
    C172   O433      1.21086      .   S
    C10    O433      1.21086      .   S
    C173   O434      1.24161      .   S
    C5     O434      1.24161      .   S
    C173   O435      1.21085      .   S
    C11    O435      1.21085      .   S
    C174   O436      1.22791      .   S
    C4     O436      1.22791      .   S
    C175   O437      1.22792      .   S
    C5     O437      1.22792      .   S
    C176   O438      1.24641      .   S
    C2     O438      1.24641      .   S
    C176   O439      1.18388      .   S
    C8     O439      1.18388      .   S
    C177   O440      1.24640      .   S
    C3     O440      1.24640      .   S
    C177   O441      1.18389      .   S
    C9     O441      1.18389      .   S
    C178   O442      1.17399      .   S
    C2     O442      1.17399      .   S
    C179   O443      1.17399      .   S
    C3     O443      1.17399      .   S
    C184   O444      1.24152      .   S
    C2     O444      1.24152      .   S
    C184   O445      1.21098      .   S
    C8     O445      1.21098      .   S
    C185   O446      1.24151      .   S
    C3     O446      1.24151      .   S
    C185   O447      1.21098      .   S
    C9     O447      1.21098      .   S
    C186   O448      1.22798  1_456   S
    C3     O448      1.22798      .   S
    C187   O449      1.22801  1_556   S
    C2     O449      1.22801      .   S
    C188   O450      1.24679      .   S
    C4     O450      1.24679      .   S
    C188   O451      1.18385      .   S
    C10    O451      1.18385      .   S
    C189   O452      1.24679      .   S
    C5     O452      1.24679      .   S
    C189   O453      1.18384      .   S
    C11    O453      1.18384      .   S
    C190   O454      1.17393  1_565   S
    C4     O454      1.17393      .   S
    C191   O455      1.17395  1_565   S
    C5     O455      1.17395      .   S
    C196   O456      1.24163      .   S
    C0     O456      1.24163      .   S
    C196   O457      1.21083      .   S
    C8     O457      1.21083      .   S
    C197   O458      1.24163      .   S
    C1     O458      1.24163      .   S
    C197   O459      1.21083      .   S
    C9     O459      1.21083      .   S
    C198   O460      1.22188      .   S
    C0     O460      1.22188      .   S
    C199   O461      1.22792      .   S
    C1     O461      1.22792      .   S
    C200   O462      1.24633      .   S
    C6     O462      1.24633      .   S
    C200   O463      1.18393      .   S
    C10    O463      1.18393      .   S
    C201   O464      1.24633      .   S
    C7     O464      1.24633      .   S
    C201   O465      1.18392      .   S
    C11    O465      1.18392      .   S
    C202   O466      1.17400      .   S
    C6     O466      1.17400      .   S
    C203   O467      1.17400      .   S
    C7     O467      1.17400      .   S
