# CIF file generated by openbabel 2.4.90, see http://openbabel.sf.net
data_I
_chemical_name_common ''
_cell_length_a 14.056
_cell_length_b 17.915
_cell_length_c 17.917
_cell_angle_alpha 100.312
_cell_angle_beta 91.959
_cell_angle_gamma 91.889
_space_group_name_H-M_alt 'P 1'
_space_group_name_Hall 'P 1'
loop_
    _symmetry_equiv_pos_as_xyz
    x,y,z
loop_
    _atom_site_label
    _atom_site_type_symbol
    _atom_site_fract_x
    _atom_site_fract_y
    _atom_site_fract_z
    _atom_site_occupancy
    H0      H    0.84954   0.31929   0.88841   1.000
    H1      H    0.14831   0.33205   0.94923   1.000
    H2      H    0.24031   0.44633   0.96274   1.000
    H3      H    0.20590   0.50377   0.89569   1.000
    H4      H    0.17829   0.53148   0.99181   1.000
    H5      H    0.85648   0.45706   0.87979   1.000
    H6      H    0.85267   0.69317   0.88287   1.000
    H7      H    0.24272   0.75117   0.93296   1.000
    H8      H    0.18529   0.70103   0.99693   1.000
    H9      H    0.19220   0.65721   0.90146   1.000
    H10     H    0.14688   0.85907   0.92610   1.000
    H11     H    0.84460   0.83245   0.88340   1.000
    H12     H    0.25042   0.10977   0.80817   1.000
    H13     H    0.25841   0.06662   0.02724   1.000
    H14     H    0.43672   0.06074   0.03016   1.000
    H15     H    0.42849   0.11101   0.80302   1.000
    H16     H    0.15047   0.11150   0.68081   1.000
    H17     H    0.85169   0.05088   0.66776   1.000
    H18     H    0.75975   0.03740   0.55340   1.000
    H19     H    0.79415   0.10435   0.49594   1.000
    H20     H    0.82178   0.00000   0.46838   1.000
    H21     H    0.14358   0.12005   0.54304   1.000
    H22     H    0.14744   0.11722   0.30690   1.000
    H23     H    0.75746   0.06692   0.24863   1.000
    H24     H    0.81500   0.00298   0.29884   1.000
    H25     H    0.80795   0.09847   0.34260   1.000
    H26     H    0.85326   0.07377   0.14082   1.000
    H27     H    0.15548   0.11662   0.16770   1.000
    H28     H    0.74928   0.19178   0.88985   1.000
    H29     H    0.74183   0.97293   0.93368   1.000
    H30     H    0.56355   0.97000   0.93963   1.000
    H31     H    0.57121   0.19689   0.88866   1.000
    H32     H    0.46750   0.29207   0.22677   1.000
    H33     H    0.16351   0.26128   0.20271   1.000
    H34     H    0.17116   0.26017   0.06320   1.000
    H35     H    0.50455   0.34148   0.04474   1.000
    H36     H    0.56207   0.30843   0.12212   1.000
    H37     H    0.52132   0.24366   0.03916   1.000
    H38     H    0.53263   0.31488   0.87026   1.000
    H39     H    0.52731   0.39925   0.83173   1.000
    H40     H    0.46678   0.39059   0.91606   1.000
    H41     H    0.17878   0.24298   0.82446   1.000
    H42     H    0.17283   0.24804   0.68606   1.000
    H43     H    0.45334   0.35520   0.71010   1.000
    H44     H    0.47480   0.05802   0.46850   1.000
    H45     H    0.17272   0.03871   0.42114   1.000
    H46     H    0.17338   0.90153   0.42907   1.000
    H47     H    0.56329   0.95279   0.49122   1.000
    H48     H    0.49961   0.88302   0.53140   1.000
    H49     H    0.52084   0.86562   0.43382   1.000
    H50     H    0.17504   0.65717   0.41990   1.000
    H51     H    0.52613   0.70928   0.48505   1.000
    H52     H    0.46566   0.74866   0.56654   1.000
    H53     H    0.53093   0.66469   0.56610   1.000
    H54     H    0.45537   0.54409   0.52550   1.000
    H55     H    0.17243   0.51810   0.42287   1.000
    H56     H    0.55703   0.21689   0.35756   1.000
    H57     H    0.58349   0.37793   0.55518   1.000
    H58     H    0.76013   0.37764   0.55581   1.000
    H59     H    0.73395   0.21025   0.34890   1.000
    H60     H    0.88784   0.29273   0.57306   1.000
    H61     H    0.87727   0.28365   0.32999   1.000
    H62     H    0.05479   0.27834   0.33451   1.000
    H63     H    0.06546   0.28731   0.56687   1.000
    H64     H    0.53238   0.77333   0.70814   1.000
    H65     H    0.83637   0.79723   0.73904   1.000
    H66     H    0.82864   0.93675   0.74011   1.000
    H67     H    0.49525   0.95532   0.65855   1.000
    H68     H    0.43776   0.87801   0.69159   1.000
    H69     H    0.47844   0.96100   0.75635   1.000
    H70     H    0.46719   0.13018   0.68527   1.000
    H71     H    0.47239   0.16851   0.60079   1.000
    H72     H    0.53280   0.08409   0.60957   1.000
    H73     H    0.82123   0.17534   0.75683   1.000
    H74     H    0.82722   0.31377   0.75180   1.000
    H75     H    0.54652   0.29011   0.64479   1.000
    H76     H    0.52521   0.53154   0.94200   1.000
    H77     H    0.82731   0.57862   0.96160   1.000
    H78     H    0.82663   0.57077   0.09877   1.000
    H79     H    0.43672   0.50897   0.04723   1.000
    H80     H    0.50036   0.46877   0.11712   1.000
    H81     H    0.47917   0.56643   0.13437   1.000
    H82     H    0.82474   0.58050   0.34322   1.000
    H83     H    0.47372   0.51518   0.29077   1.000
    H84     H    0.53434   0.43371   0.25145   1.000
    H85     H    0.46912   0.43414   0.33537   1.000
    H86     H    0.54461   0.47470   0.45598   1.000
    H87     H    0.82736   0.57750   0.48220   1.000
    H88     H    0.44288   0.64252   0.78315   1.000
    H89     H    0.41655   0.44483   0.62220   1.000
    H90     H    0.23990   0.44417   0.62240   1.000
    H91     H    0.26597   0.65111   0.78978   1.000
    H92     H    0.11236   0.42690   0.70727   1.000
    H93     H    0.12248   0.67000   0.71650   1.000
    C94     C    0.59010   0.88720   0.71330   1.000
    C95     C    0.49539   0.92177   0.70426   1.000
    C96     C    0.67578   0.93293   0.72126   1.000
    C97     C    0.67385   0.01084   0.71679   1.000
    H98     H    0.94499   0.66545   0.72192   1.000
    H99     H    0.93476   0.43306   0.71282   1.000
    C100    C    0.99871   0.31722   0.91946   1.000
    C101    C    0.91621   0.35265   0.90010   1.000
    C102    C    0.08467   0.36019   0.93451   1.000
    C103    C    0.09068   0.43727   0.93094   1.000
    C104    C    0.18389   0.48182   0.94636   1.000
    C105    C    0.91989   0.42925   0.89573   1.000
    C106    C    0.00643   0.47268   0.91174   1.000
    C107    C    0.00813   0.55124   0.90958   1.000
    C108    C    0.00739   0.61939   0.90922   1.000
    C109    C    0.00447   0.69801   0.90795   1.000
    C110    C    0.91660   0.73016   0.89380   1.000
    C111    C    0.08918   0.74497   0.92054   1.000
    C112    C    0.18250   0.71217   0.93840   1.000
    C113    C    0.08296   0.82189   0.91740   1.000
    C114    C    0.91229   0.80739   0.89339   1.000
    C115    C    0.99555   0.85404   0.90470   1.000
    C116    C    0.29509   0.10000   0.85605   1.000
    C117    C    0.29955   0.07451   0.97859   1.000
    C118    C    0.39827   0.07149   0.97958   1.000
    C119    C    0.39375   0.10012   0.85364   1.000
    C120    C    0.44739   0.08497   0.91617   1.000
    C121    C    0.00128   0.08058   0.68275   1.000
    C122    C    0.08380   0.09985   0.64740   1.000
    C123    C    0.91534   0.06556   0.63969   1.000
    C124    C    0.90938   0.06909   0.56260   1.000
    C125    C    0.81617   0.05369   0.51797   1.000
    C126    C    0.08016   0.10417   0.57078   1.000
    C127    C    0.99363   0.08822   0.52728   1.000
    C128    C    0.99196   0.09038   0.44873   1.000
    C129    C    0.99276   0.09077   0.38059   1.000
    C130    C    0.99568   0.09204   0.30199   1.000
    C131    C    0.08352   0.10621   0.26992   1.000
    C132    C    0.91098   0.07940   0.25497   1.000
    C133    C    0.81769   0.06151   0.28769   1.000
    C134    C    0.91718   0.08242   0.17805   1.000
    C135    C    0.08780   0.10663   0.19269   1.000
    C136    C    0.00455   0.09525   0.14597   1.000
    C137    C    0.70474   0.14395   0.89979   1.000
    C138    C    0.70059   0.02154   0.92565   1.000
    C139    C    0.60188   0.02055   0.92871   1.000
    C140    C    0.60607   0.14634   0.89970   1.000
    C141    C    0.55260   0.08388   0.91505   1.000
    C142    C    0.31528   0.27714   0.22304   1.000
    C143    C    0.40323   0.28547   0.19006   1.000
    C144    C    0.23150   0.26826   0.17700   1.000
    C145    C    0.23562   0.26831   0.09976   1.000
    C146    C    0.40972   0.28680   0.11287   1.000
    C147    C    0.50441   0.29580   0.07830   1.000
    C148    C    0.32402   0.27892   0.06710   1.000
    C149    C    0.32595   0.28327   0.98919   1.000
    C150    C    0.32421   0.28932   0.92231   1.000
    C151    C    0.32051   0.29520   0.84466   1.000
    C152    C    0.39874   0.32847   0.81247   1.000
    C153    C    0.48572   0.36039   0.85999   1.000
    C154    C    0.23859   0.26749   0.79869   1.000
    C155    C    0.23528   0.27033   0.72172   1.000
    C156    C    0.39354   0.32985   0.73493   1.000
    C157    C    0.31385   0.29999   0.68875   1.000
    C158    C    0.32398   0.05708   0.44529   1.000
    C159    C    0.40925   0.02280   0.46015   1.000
    C160    C    0.23894   0.01260   0.43333   1.000
    C161    C    0.23943   0.93611   0.43777   1.000
    C162    C    0.41179   0.94610   0.46528   1.000
    C163    C    0.50381   0.91048   0.48141   1.000
    C164    C    0.32477   0.90180   0.45453   1.000
    C165    C    0.32272   0.82403   0.46053   1.000
    C166    C    0.31943   0.75680   0.46559   1.000
    C167    C    0.31742   0.67870   0.47030   1.000
    C168    C    0.23620   0.63172   0.44304   1.000
    C169    C    0.39745   0.64660   0.50150   1.000
    C170    C    0.48464   0.69463   0.53183   1.000
    C171    C    0.39411   0.56877   0.50182   1.000
    C172    C    0.23459   0.55445   0.44448   1.000
    C173    C    0.31464   0.52194   0.47266   1.000
    C174    C    0.60536   0.25132   0.39992   1.000
    C175    C    0.61948   0.34079   0.51103   1.000
    C176    C    0.71835   0.34010   0.51118   1.000
    C177    C    0.70357   0.24835   0.39550   1.000
    C178    C    0.76243   0.29275   0.45270   1.000
    C179    C    0.86731   0.28939   0.45171   1.000
    C180    C    0.92191   0.29077   0.51904   1.000
    C181    C    0.91573   0.28435   0.38395   1.000
    C182    C    0.01444   0.28186   0.38578   1.000
    C183    C    0.02029   0.28736   0.51625   1.000
    C184    C    0.68460   0.77698   0.72310   1.000
    C185    C    0.59663   0.81001   0.71476   1.000
    C186    C    0.76836   0.82295   0.73203   1.000
    C187    C    0.76420   0.90023   0.73195   1.000
    C188    C    0.67565   0.07770   0.71064   1.000
    C189    C    0.67938   0.15534   0.70470   1.000
    C190    C    0.60110   0.18765   0.67150   1.000
    C191    C    0.51400   0.14024   0.63968   1.000
    C192    C    0.76139   0.20120   0.73236   1.000
    C193    C    0.76473   0.27818   0.72953   1.000
    C194    C    0.60635   0.26519   0.67010   1.000
    C195    C    0.68613   0.31126   0.69992   1.000
    C196    C    0.67604   0.55460   0.94311   1.000
    C197    C    0.59077   0.53983   0.97734   1.000
    C198    C    0.76109   0.56650   0.98766   1.000
    C199    C    0.76059   0.56212   0.06414   1.000
    C200    C    0.58822   0.53478   0.05403   1.000
    C201    C    0.49619   0.51877   0.08958   1.000
    C202    C    0.67524   0.54549   0.09839   1.000
    C203    C    0.67727   0.53960   0.17618   1.000
    C204    C    0.68050   0.53463   0.24343   1.000
    C205    C    0.68247   0.53000   0.32154   1.000
    C206    C    0.76363   0.55731   0.36860   1.000
    C207    C    0.60248   0.49874   0.35355   1.000
    C208    C    0.51533   0.46842   0.30545   1.000
    C209    C    0.60581   0.49846   0.43137   1.000
    C210    C    0.76524   0.55587   0.44586   1.000
    C211    C    0.68524   0.52763   0.47827   1.000
    C212    C    0.39458   0.60014   0.74873   1.000
    C213    C    0.38054   0.48900   0.65930   1.000
    C214    C    0.28166   0.48883   0.65999   1.000
    C215    C    0.29637   0.60448   0.75169   1.000
    C216    C    0.23754   0.54730   0.70731   1.000
    C217    C    0.13267   0.54827   0.71069   1.000
    C218    C    0.07819   0.48092   0.70929   1.000
    C219    C    0.08413   0.61603   0.71579   1.000
    C220    C    0.98543   0.61418   0.71835   1.000
    C221    C    0.97981   0.48369   0.71278   1.000
    N222    N    0.24846   0.08797   0.91760   1.000
    N223    N    0.75152   0.08247   0.91199   1.000
    N224    N    0.56361   0.29664   0.45693   1.000
    N225    N    0.06629   0.28339   0.45083   1.000
    N226    N    0.43637   0.54312   0.70343   1.000
    N227    N    0.93370   0.54912   0.71682   1.000
loop_
    _geom_bond_atom_site_label_1
    _geom_bond_atom_site_label_2
    _geom_bond_distance
    _geom_bond_site_symmetry_2
    _ccdc_geom_bond_type
    H13    C117      1.08968  1_554   S
    H14    C118      1.08919  1_554   S
    H37    C147      1.10106      .   S
    H35    C147      1.09879      .   S
    H79    C201      1.09760      .   S
    C200   C201      1.50277      .   S
    C200   C202      1.42418      .   S
    C200   C197      1.39473  1_554   S
    H34    C145      1.08982      .   S
    C199   C202      1.41304      .   S
    C199   H78       1.08971      .   S
    C199   C198      1.38671  1_554   S
    C148   C145      1.41300      .   S
    C148   C146      1.42235      .   S
    C148   C149      1.41309  1_554   S
    C147   C146      1.50310      .   S
    C147   H36       1.09778      .   S
    C201   H80       1.09945      .   S
    C201   H81       1.10077      .   S
    C202   C203      1.41588      .   S
    C145   C144      1.38725      .   S
    C146   C143      1.39351      .   S
    H26    C134      1.09043      .   S
    C136   C134      1.40292  1_455   S
    C136   C135      1.40286      .   S
    H27    C135      1.08805      .   S
    C203   C204      1.22339      .   S
    C144   H33       1.08816      .   S
    C144   C142      1.40246      .   S
    C134   C132      1.39447      .   S
    C143   C142      1.40314      .   S
    C143   H32       1.08959      .   S
    C135   C131      1.38847      .   S
    C204   C205      1.41609      .   S
    H23    C133      1.09786      .   S
    H84    C208      1.09885      .   S
    C132   C133      1.50258      .   S
    C132   C130      1.42263      .   S
    C131   C130      1.41381  1_455   S
    C131   H22       1.08907      .   S
    C133   H24       1.10159      .   S
    C133   H25       1.09865      .   S
    H83    C208      1.10164      .   S
    C130   C129      1.41450      .   S
    C208   H85       1.09634      .   S
    C208   C207      1.50159      .   S
    C205   C207      1.42274      .   S
    C205   C206      1.41469      .   S
    H61    C181      1.08932      .   S
    H62    C182      1.08941      .   S
    H82    C206      1.08997      .   S
    H59    C177      1.08856      .   S
    C207   C209      1.39442      .   S
    H56    C174      1.08973      .   S
    C206   C210      1.38856      .   S
    C129   C128      1.22256      .   S
    C181   C182      1.38909  1_655   S
    C181   C179      1.40233      .   S
    C182   N225      1.34889      .   S
    C177   C174      1.38755      .   S
    C177   C178      1.40513      .   S
    C174   N224      1.35000      .   S
    H50    C168      1.08992      .   S
    H45    C160      1.08822      .   S
    H55    C172      1.08930      .   S
    H46    C161      1.08968      .   S
    C209   H86       1.08843      .   S
    C209   C211      1.40207      .   S
    C160   C161      1.38701  1_545   S
    C160   C158      1.40301      .   S
    H49    C163      1.10071      .   S
    C161   C164      1.41306      .   S
    C168   C172      1.38858      .   S
    C168   C167      1.41473      .   S
    C172   C173      1.40348      .   S
    C158   C159      1.40354      .   S
    C210   C211      1.40351      .   S
    C210   H87       1.08865      .   S
    C128   C127      1.41425      .   S
    N225   C183      1.34982      .   S
    C179   C178      1.47795      .   S
    C179   C180      1.40346      .   S
    C178   C176      1.40077      .   S
    C164   C165      1.41597      .   S
    C164   C162      1.42421      .   S
    N224   C175      1.34700      .   S
    C159   C162      1.39497  1_545   S
    C159   H44       1.08992      .   S
    C165   C166      1.22336      .   S
    C162   C163      1.50280      .   S
    C166   C167      1.41614      .   S
    H20    C125      1.19363      .   S
    C167   C169      1.42245      .   S
    C173   C171      1.40209      .   S
    C163   H47       1.09768      .   S
    C163   H48       1.09878      .   S
    H51    C170      1.10166      .   S
    H19    C125      1.10157      .   S
    C169   C171      1.39465      .   S
    C169   C170      1.50170      .   S
    C171   H54       1.08811      .   S
    C175   C176      1.39022      .   S
    C175   H57       1.08872      .   S
    C176   H58       1.08902      .   S
    C183   C180      1.38837  1_455   S
    C183   H63       1.08929      .   S
    C125   H18       1.09666      .   S
    C125   C124      1.50247      .   S
    C180   H60       1.08999      .   S
    C127   C124      1.42218      .   S
    C127   C126      1.41453  1_655   S
    C170   H53       1.09631      .   S
    C170   H52       1.09886      .   S
    H21    C126      1.08934      .   S
    C124   C123      1.39374      .   S
    C126   C122      1.38808      .   S
    H71    C191      1.09636      .   S
    H72    C191      1.09812      .   S
    H89    C213      1.08869      .   S
    H90    C214      1.08962      .   S
    C191   C190      1.50184      .   S
    C191   H70       1.10200      .   S
    C123   H17       1.08865      .   S
    C123   C121      1.40263  1_655   S
    H75    C194      1.08785      .   S
    C122   H16       1.08818      .   S
    C122   C121      1.40273      .   S
    H67    C95       1.09920      .   S
    C213   C214      1.39020      .   S
    C213   N226      1.34698      .   S
    C214   C216      1.40063      .   S
    C194   C190      1.39343      .   S
    C194   C195      1.40158      .   S
    C190   C189      1.42122      .   S
    H42    C155      1.08871      .   S
    C157   C155      1.40327      .   S
    C157   C156      1.40154      .   S
    H68    C95       1.09735      .   S
    C195   C193      1.40322      .   S
    N226   C212      1.34999      .   S
    C95    C94       1.50256      .   S
    C95    H69       1.10135      .   S
    C189   C188      1.41328      .   S
    C189   C192      1.41491      .   S
    H92    C218      1.08991      .   S
    C216   C217      1.47794      .   S
    C216   C215      1.40462      .   S
    H64    C185      1.08962      .   S
    C218   C217      1.40354      .   S
    C218   C221      1.38839  1_455   S
    H43    C156      1.08784      .   S
    C188   C97       1.22179      .   S
    C217   C219      1.40233      .   S
    C221   H99       1.08920      .   S
    C221   N227      1.34990      .   S
    C94    C185      1.39378      .   S
    C94    C96       1.42225      .   S
    C185   C184      1.40307      .   S
    C219   H93       1.08927      .   S
    C219   C220      1.38907  1_455   S
    C97    C96       1.41354  1_545   S
    N227   C220      1.34890      .   S
    C220   H98       1.08932      .   S
    C96    C187      1.41294      .   S
    C155   C154      1.38832      .   S
    C184   C186      1.40207      .   S
    C193   C192      1.38838      .   S
    C193   H74       1.08872      .   S
    C187   C186      1.38789      .   S
    C187   H66       1.08979      .   S
    C186   H65       1.08783      .   S
    C192   H73       1.08967      .   S
    C156   C152      1.39338      .   S
    C212   C215      1.38743      .   S
    C212   H88       1.08971      .   S
    C215   H91       1.08881      .   S
    C154   H41       1.08972      .   S
    C154   C151      1.41490      .   S
    H15    C119      1.08921      .   S
    H12    C116      1.08857      .   S
    C152   C151      1.42126      .   S
    C152   C153      1.50182      .   S
    H39    C153      1.09647      .   S
    C151   C150      1.41327      .   S
    C119   C116      1.38888      .   S
    C119   C120      1.40064      .   S
    C116   N222      1.34807      .   S
    C153   H38       1.10193      .   S
    C153   H40       1.09818      .   S
    H5     C105      1.08938      .   S
    H6     C110      1.08968      .   S
    H11    C114      1.08824      .   S
    H0     C101      1.08819      .   S
    H31    C140      1.08917      .   S
    H28    C137      1.08849      .   S
    C114   C110      1.38823      .   S
    C114   C115      1.40284      .   S
    C110   C109      1.41397  1_655   S
    H3     C104      1.10155      .   S
    C105   C101      1.38796      .   S
    C105   C106      1.41453  1_655   S
    C140   C137      1.38889      .   S
    C140   C141      1.40059      .   S
    C137   N223      1.34815      .   S
    C101   C100      1.40272      .   S
    H9     C112      1.09901      .   S
    C115   C113      1.40254  1_655   S
    C109   C108      1.41457      .   S
    C109   C111      1.42269      .   S
    C108   C107      1.22245      .   S
    C107   C106      1.41435      .   S
    C106   C103      1.42221      .   S
    N223   C138      1.34896      .   S
    C141   C120      1.48040      .   S
    C141   C139      1.40233      .   S
    C120   C118      1.40235      .   S
    C113   C111      1.39483      .   S
    C113   H10       1.09039      .   S
    N222   C117      1.34904      .   S
    C100   C102      1.40263  1_655   S
    C111   C112      1.50255      .   S
    C150   C149      1.22182      .   S
    C138   C139      1.39010      .   S
    C138   H29       1.08980  1_545   S
    C139   H30       1.08953  1_545   S
    C103   C102      1.39369      .   S
    C103   C104      1.50251      .   S
    H7     C112      1.09783      .   S
    C102   H1        1.08861      .   S
    C112   H8        1.10166      .   S
    H76    C197      1.09075      .   S
    C196   C197      1.40360      .   S
    C196   C198      1.40308      .   S
    C104   H2        1.09701      .   S
    C104   H4        1.10008      .   S
    H77    C198      1.08825      .   S
    C117   C118      1.39012      .   S
