# CIF file generated by openbabel 2.4.90, see http://openbabel.sf.net
data_I
_chemical_name_common ''
_cell_length_a 14.056
_cell_length_b 17.915
_cell_length_c 17.917
_cell_angle_alpha 100.312
_cell_angle_beta 91.959
_cell_angle_gamma 91.889
_space_group_name_H-M_alt 'P 1'
_space_group_name_Hall 'P 1'
loop_
    _symmetry_equiv_pos_as_xyz
    x,y,z
loop_
    _atom_site_label
    _atom_site_type_symbol
    _atom_site_fract_x
    _atom_site_fract_y
    _atom_site_fract_z
    _atom_site_occupancy
    Lv0     Lv   0.18504   0.54716   0.70951   1.000
    Lv1     Lv   0.36364   0.29797   0.95922   1.000
    Lv2     Lv   0.95214   0.08093   0.41157   1.000
    Lv3     Lv   0.49999   0.08487   0.91515   1.000
    Lv4     Lv   0.36441   0.79308   0.47252   1.000
    Lv5     Lv   0.63621   0.04083   0.70210   1.000
    Lv6     Lv   0.04796   0.58837   0.91876   1.000
    Lv7     Lv   0.63555   0.52763   0.20709   1.000
    Lv8     Lv   0.81494   0.29059   0.45283   1.000
