# CIF file generated by openbabel 2.4.90, see http://openbabel.sf.net
data_I
_chemical_name_common ''
_cell_length_a 14.056
_cell_length_b 17.915
_cell_length_c 17.917
_cell_angle_alpha 100.312
_cell_angle_beta 91.959
_cell_angle_gamma 91.889
_space_group_name_H-M_alt 'P 1'
_space_group_name_Hall 'P 1'
loop_
    _symmetry_equiv_pos_as_xyz
    x,y,z
loop_
    _atom_site_label
    _atom_site_type_symbol
    _atom_site_fract_x
    _atom_site_fract_y
    _atom_site_fract_z
    _atom_site_occupancy
    C0      C    0.99663   0.23397   0.92188   1.000
    C1      C    0.99144   0.93762   0.90444   1.000
    C2      C    0.00334   0.07819   0.76600   1.000
    C3      C    0.00862   0.09551   0.06240   1.000
    C4      C    0.31145   0.27890   0.30684   1.000
    C5      C    0.31382   0.29822   0.60486   1.000
    C6      C    0.32312   0.14071   0.44493   1.000
    C7      C    0.31641   0.43791   0.46975   1.000
    C8      C    0.68849   0.69317   0.72129   1.000
    C9      C    0.68617   0.39518   0.70183   1.000
    C10     C    0.67688   0.55501   0.85950   1.000
    C11     C    0.68347   0.53040   0.56220   1.000
