# CIF file generated by openbabel 2.4.90, see http://openbabel.sf.net
data_I
_chemical_name_common ''
_cell_length_a 14.056
_cell_length_b 17.915
_cell_length_c 17.917
_cell_angle_alpha 100.312
_cell_angle_beta 91.959
_cell_angle_gamma 91.889
_space_group_name_H-M_alt 'P 1'
_space_group_name_Hall 'P 1'
loop_
    _symmetry_equiv_pos_as_xyz
    x,y,z
loop_
    _atom_site_label
    _atom_site_type_symbol
    _atom_site_fract_x
    _atom_site_fract_y
    _atom_site_fract_z
    _atom_site_occupancy
    N0      N    0.18504   0.54716   0.70951   1.000
    N1      N    0.36364   0.29797   0.95922   1.000
    N2      N    0.95214   0.08093   0.41157   1.000
    N3      N    0.49999   0.08487   0.91515   1.000
    N4      N    0.36441   0.79308   0.47252   1.000
    N5      N    0.63621   0.04083   0.70210   1.000
    N6      N    0.04796   0.58837   0.91876   1.000
    N7      N    0.63555   0.52763   0.20709   1.000
    N8      N    0.81494   0.29059   0.45283   1.000
    Zr9     Zr   0.31597   0.28892   0.45628   1.000
    O10     O    0.32998   0.11745   0.45755   1.000
    O11     O    0.32724   0.28846   0.28418   1.000
    O12     O    0.32797   0.46271   0.46407   1.000
    O13     O    0.14667   0.28799   0.45400   1.000
    O14     O    0.32736   0.29373   0.62965   1.000
    O15     O    0.48427   0.29092   0.45593   1.000
    Zr16    Zr   0.00000   0.08616   0.91385   1.000
    O17     O    0.98862   0.08316   0.74091   1.000
    O18     O    0.16864   0.08658   0.91524   1.000
    O19     O    0.98968   0.08716   0.08586   1.000
    O20     O    0.83136   0.08478   0.91342   1.000
    O21     O    0.01037   0.91413   0.91276   1.000
    O22     O    0.01141   0.25907   0.91678   1.000
    Zr23    Zr   0.68398   0.54374   0.71124   1.000
    O24     O    0.51570   0.54409   0.70920   1.000
    O25     O    0.67000   0.54248   0.88272   1.000
    O26     O    0.67258   0.37039   0.70636   1.000
    O27     O    0.67268   0.71585   0.71169   1.000
    O28     O    0.85331   0.54600   0.71219   1.000
    O29     O    0.67197   0.53603   0.53745   1.000
loop_
    _geom_bond_atom_site_label_1
    _geom_bond_atom_site_label_2
    _geom_bond_distance
    _geom_bond_site_symmetry_2
    _ccdc_geom_bond_type
    Zr9    O10       3.08865      .   S
    N4     O10       5.90000  1_565   S
    Zr9    O11       3.09153      .   S
    N1     O11       5.89433  1_556   S
    Zr9    O12       3.09029      .   S
    N4     O12       5.89821      .   S
    Zr9    O13       2.37821      .   S
    N8     O13       4.66393  1_655   S
    Zr9    O14       3.09043      .   S
    N1     O14       5.89624      .   S
    Zr9    O15       2.36487      .   S
    N8     O15       4.65029      .   S
    Zr16   O17       3.08791  1_455   S
    N2     O17       5.89841      .   S
    Zr16   O18       2.36938      .   S
    N3     O18       4.65863      .   S
    Zr16   O19       3.08725  1_456   S
    N2     O19       5.89796      .   S
    Zr16   O20       2.36956  1_455   S
    N3     O20       4.65889      .   S
    Zr16   O21       3.08676  1_545   S
    N6     O21       5.89691      .   S
    Zr16   O22       3.08749      .   S
    N6     O22       5.89848      .   S
    Zr23   O24       2.36466      .   S
    N0     O24       4.65002      .   S
    Zr23   O25       3.08943      .   S
    N7     O25       5.90080  1_554   S
    Zr23   O26       3.08997      .   S
    N5     O26       5.89580      .   S
    Zr23   O27       3.09115      .   S
    N5     O27       5.89391  1_545   S
    Zr23   O28       2.37842      .   S
    N0     O28       4.66420  1_455   S
    Zr23   O29       3.09058      .   S
    N7     O29       5.89820      .   S
