# CIF file generated by openbabel 2.4.90, see http://openbabel.sf.net
data_I
_chemical_name_common ''
_cell_length_a 15.541
_cell_length_b 15.536
_cell_length_c 15.533
_cell_angle_alpha 76.13
_cell_angle_beta 76.134
_cell_angle_gamma 76.139
_space_group_name_H-M_alt 'P 1'
_space_group_name_Hall 'P 1'
loop_
    _symmetry_equiv_pos_as_xyz
    x,y,z
loop_
    _atom_site_label
    _atom_site_type_symbol
    _atom_site_fract_x
    _atom_site_fract_y
    _atom_site_fract_z
    _atom_site_occupancy
    Zn0     Zn   0.51083   0.07562   0.51080   1.000
    Zn1     Zn   0.51081   0.51082   0.07565   1.000
    Zn2     Zn   0.48917   0.92438   0.48918   1.000
    Zn3     Zn   0.92444   0.48915   0.48917   1.000
    Zn4     Zn   0.48919   0.48917   0.92437   1.000
    C5      C    0.06563   0.32752   0.51477   1.000
    C6      C    0.51496   0.06548   0.32752   1.000
    C7      C    0.32758   0.51463   0.06539   1.000
    Zn8     Zn   0.07554   0.51084   0.51085   1.000
    C9      C    0.67242   0.93457   0.48538   1.000
    C10     C    0.93436   0.48517   0.67249   1.000
    C11     C    0.48506   0.67246   0.93459   1.000
    C12     C    0.93436   0.67247   0.48525   1.000
    C13     C    0.48504   0.93451   0.67249   1.000
    C14     C    0.67242   0.48536   0.93463   1.000
    C15     C    0.32758   0.06543   0.51464   1.000
    C16     C    0.06563   0.51482   0.32750   1.000
    C17     C    0.51493   0.32753   0.06542   1.000
    O18     O    0.98364   0.35655   0.50471   1.000
    O19     O    0.11856   0.37535   0.52295   1.000
    O20     O    0.50491   0.98346   0.35650   1.000
    O21     O    0.52306   0.11847   0.37534   1.000
    O22     O    0.35661   0.50457   0.98339   1.000
    O23     O    0.37538   0.52274   0.11839   1.000
    O24     O    0.64341   0.01657   0.49545   1.000
    O25     O    0.62461   0.88159   0.47726   1.000
    O26     O    0.01635   0.49524   0.64345   1.000
    O27     O    0.88143   0.47699   0.62460   1.000
    O28     O    0.49510   0.64343   0.01660   1.000
    O29     O    0.47700   0.62465   0.88158   1.000
    O30     O    0.01635   0.64344   0.49531   1.000
    O31     O    0.88144   0.62465   0.47700   1.000
    O32     O    0.49509   0.01653   0.64345   1.000
    O33     O    0.47694   0.88152   0.62467   1.000
    O34     O    0.64338   0.49543   0.01660   1.000
    O35     O    0.62462   0.47725   0.88163   1.000
    O36     O    0.35659   0.98342   0.50457   1.000
    O37     O    0.37538   0.11841   0.52275   1.000
    O38     O    0.98365   0.50475   0.35657   1.000
    O39     O    0.11856   0.52301   0.37535   1.000
    O40     O    0.50489   0.35656   0.98342   1.000
    O41     O    0.52300   0.37534   0.11843   1.000
loop_
    _geom_bond_atom_site_label_1
    _geom_bond_atom_site_label_2
    _geom_bond_distance
    _geom_bond_site_symmetry_2
    _ccdc_geom_bond_type
    O28    Zn1       2.02626      .   S
    O28    C11       1.27928  1_554   S
    O34    Zn1       2.02646      .   S
    O34    C14       1.27887  1_554   S
    C7     O23       1.27788      .   S
    C7     O22       1.27928  1_554   S
    C17    O41       1.27780      .   S
    C17    O40       1.27916  1_554   S
    Zn1    O23       2.02674      .   S
    Zn1    O41       2.02644      .   S
    C16    O38       1.27970  1_455   S
    C16    O39       1.27814      .   S
    C6     O20       1.27957  1_545   S
    C6     O21       1.27784      .   S
    O20    Zn2       2.02702      .   S
    O38    Zn3       2.02652      .   S
    O21    Zn0       2.02581      .   S
    O39    Zn8       2.02679      .   S
    O31    C12       1.27819      .   S
    O31    Zn3       2.02717      .   S
    O25    C9        1.27789      .   S
    O25    Zn2       2.02702      .   S
    C12    O30       1.27967  1_655   S
    C9     O24       1.27962  1_565   S
    Zn3    O18       2.02697      .   S
    Zn3    O27       2.02578      .   S
    Zn2    O36       2.02665      .   S
    Zn2    O33       2.02626      .   S
    O30    Zn8       2.02694      .   S
    O24    Zn0       2.02667      .   S
    O36    C15       1.27960  1_565   S
    O18    C5        1.27969  1_655   S
    Zn0    O37       2.02698      .   S
    Zn0    O32       2.02664      .   S
    Zn8    O19       2.02723      .   S
    Zn8    O26       2.02649      .   S
    C15    O37       1.27782      .   S
    C5     O19       1.27782      .   S
    O27    C10       1.27859      .   S
    O33    C13       1.27783      .   S
    O26    C10       1.27966  1_455   S
    O32    C13       1.27966  1_545   S
    O29    Zn4       2.02645      .   S
    O29    C11       1.27776      .   S
    O35    Zn4       2.02674      .   S
    O35    C14       1.27791      .   S
    Zn4    O22       2.02636      .   S
    Zn4    O40       2.02625      .   S
    Zn8    Zn3       2.56001  1_455   S
    Zn0    Zn2       2.56095  1_545   S
    Zn1    Zn4       2.56112  1_554   S
