# CIF file generated by openbabel 2.4.90, see http://openbabel.sf.net
data_I
_chemical_name_common ''
_cell_length_a 15.541
_cell_length_b 15.536
_cell_length_c 15.533
_cell_angle_alpha 76.13
_cell_angle_beta 76.134
_cell_angle_gamma 76.139
_space_group_name_H-M_alt 'P 1'
_space_group_name_Hall 'P 1'
loop_
    _symmetry_equiv_pos_as_xyz
    x,y,z
loop_
    _atom_site_label
    _atom_site_type_symbol
    _atom_site_fract_x
    _atom_site_fract_y
    _atom_site_fract_z
    _atom_site_occupancy
    N0      N    1.00000   1.00000   0.50000   1.000
    N1      N    1.00000   0.50000   0.00001   1.000
    N2      N    0.50000   1.00000   1.00000   1.000
    Zr3     Zr   1.00000   0.50000   0.50000   1.000
    O4      O    0.97893   0.68041   0.49621   1.000
    O5      O    0.02107   0.31959   0.50379   1.000
    O6      O    0.97893   0.49619   0.68041   1.000
    O7      O    0.02107   0.50380   0.31959   1.000
    Zr8     Zr   0.50000   0.50000   0.00001   1.000
    O9      O    0.31961   0.50377   0.02102   1.000
    O10     O    0.50384   0.31959   0.02102   1.000
    O11     O    0.49615   0.68040   0.97899   1.000
    O12     O    0.68039   0.49623   0.97900   1.000
    Zr13    Zr   0.50000   1.00000   0.50000   1.000
    O14     O    0.50385   0.02103   0.31959   1.000
    O15     O    0.49615   0.97896   0.68041   1.000
    O16     O    0.31961   0.02102   0.50377   1.000
    O17     O    0.68039   0.97898   0.49623   1.000
loop_
    _geom_bond_atom_site_label_1
    _geom_bond_atom_site_label_2
    _geom_bond_distance
    _geom_bond_site_symmetry_2
    _ccdc_geom_bond_type
    Zr3    O4        2.73073      .   S
    N0     O4        5.06876      .   S
    Zr3    O5        2.73070  1_655   S
    N0     O5        5.06875  1_665   S
    Zr3    O6        2.73024      .   S
    N1     O6        5.06791  1_554   S
    Zr3    O7        2.73013  1_655   S
    N1     O7        5.06770  1_655   S
    Zr8    O9        2.73150      .   S
    N1     O9        5.07023  1_655   S
    Zr8    O10       2.73061      .   S
    N2     O10       5.06878  1_566   S
    Zr8    O11       2.73058  1_554   S
    N2     O11       5.06871      .   S
    Zr8    O12       2.73151  1_554   S
    N1     O12       5.07024  1_554   S
    Zr13   O14       2.73008  1_565   S
    N2     O14       5.06786  1_566   S
    Zr13   O15       2.73010      .   S
    N2     O15       5.06777      .   S
    Zr13   O16       2.73152  1_565   S
    N0     O16       5.07027  1_665   S
    Zr13   O17       2.73153      .   S
    N0     O17       5.07024      .   S
