# CIF file generated by openbabel 2.4.90, see http://openbabel.sf.net
data_I
_chemical_name_common ''
_cell_length_a 12.333
_cell_length_b 13.793
_cell_length_c 17.568
_cell_angle_alpha 90.008
_cell_angle_beta 93.554
_cell_angle_gamma 89.971
_space_group_name_H-M_alt 'P 1'
_space_group_name_Hall 'P 1'
loop_
    _symmetry_equiv_pos_as_xyz
    x,y,z
loop_
    _atom_site_label
    _atom_site_type_symbol
    _atom_site_fract_x
    _atom_site_fract_y
    _atom_site_fract_z
    _atom_site_occupancy
    Zn0     Zn   0.46231   0.90504   0.92621   1.000
    Zn1     Zn   0.06511   0.97500   0.09653   1.000
    Zn2     Zn   0.03769   0.40500   0.07374   1.000
    Zn3     Zn   0.56508   0.52505   0.09650   1.000
    Zn4     Zn   0.53765   0.09498   0.07376   1.000
    Zn5     Zn   0.93484   0.02503   0.90344   1.000
    Zn6     Zn   0.96227   0.59502   0.92620   1.000
    H7      H    0.46556   0.69668   0.84206   1.000
    H8      H    0.27735   0.38919   0.02326   1.000
    H9      H    0.53114   0.29105   0.70805   1.000
    H10     H    0.53380   0.22680   0.57492   1.000
    H11     H    0.35192   0.47562   0.49170   1.000
    H12     H    0.35018   0.53956   0.62450   1.000
    H13     H    0.23545   0.28748   0.46964   1.000
    H14     H    0.09183   0.31257   0.36443   1.000
    H15     H    0.33699   0.39100   0.21238   1.000
    H16     H    0.48140   0.36322   0.31620   1.000
    H17     H    0.25944   0.57971   0.79541   1.000
    H18     H    0.12029   0.61218   0.80143   1.000
    H19     H    0.52751   0.72922   0.13791   1.000
    H20     H    0.50149   0.83850   0.09163   1.000
    H21     H    0.03433   0.19667   0.15795   1.000
    H22     H    0.22263   0.88954   0.97657   1.000
    H23     H    0.96925   0.79083   0.29186   1.000
    H24     H    0.96661   0.72661   0.42499   1.000
    H25     H    0.14792   0.97559   0.50820   1.000
    H26     H    0.14966   0.03947   0.37549   1.000
    H27     H    0.26461   0.78726   0.53036   1.000
    H28     H    0.40821   0.81237   0.63555   1.000
    H29     H    0.16301   0.89115   0.78755   1.000
    H30     H    0.01862   0.86334   0.68374   1.000
    H31     H    0.24052   0.07958   0.20471   1.000
    Zn32    Zn   0.43487   0.47498   0.90345   1.000
    H33     H    0.37965   0.11207   0.19868   1.000
    H34     H    0.97227   0.22917   0.86211   1.000
    H35     H    0.99836   0.33842   0.90839   1.000
    H36     H    0.53439   0.30335   0.15792   1.000
    H37     H    0.72260   0.61084   0.97671   1.000
    H38     H    0.46881   0.70898   0.29192   1.000
    H39     H    0.46615   0.77323   0.42506   1.000
    H40     H    0.64804   0.52441   0.50825   1.000
    H41     H    0.64978   0.46047   0.37548   1.000
    H42     H    0.76450   0.71254   0.53034   1.000
    H43     H    0.90812   0.68746   0.63550   1.000
    H44     H    0.66296   0.60903   0.78759   1.000
    H45     H    0.51855   0.63681   0.68378   1.000
    H46     H    0.74051   0.42031   0.20457   1.000
    H47     H    0.87967   0.38784   0.19850   1.000
    H48     H    0.47244   0.27081   0.86207   1.000
    H49     H    0.49846   0.16153   0.90830   1.000
    H50     H    0.96562   0.80335   0.84203   1.000
    H51     H    0.77732   0.11049   0.02340   1.000
    H52     H    0.03071   0.20919   0.70812   1.000
    H53     H    0.03335   0.27341   0.57499   1.000
    H54     H    0.85203   0.02443   0.49171   1.000
    H55     H    0.85029   0.96055   0.62448   1.000
    H56     H    0.73534   0.21277   0.46962   1.000
    H57     H    0.59174   0.18766   0.36442   1.000
    H58     H    0.83695   0.10888   0.21243   1.000
    H59     H    0.98133   0.13668   0.31623   1.000
    H60     H    0.75943   0.92044   0.79526   1.000
    H61     H    0.62031   0.88795   0.80130   1.000
    H62     H    0.02769   0.77085   0.13787   1.000
    H63     H    0.00160   0.66160   0.09159   1.000
    C64     C    0.48174   0.68883   0.90313   1.000
    C65     C    0.51109   0.72121   0.02252   1.000
    C66     C    0.18731   0.52952   0.88814   1.000
    C67     C    0.23126   0.43478   0.98270   1.000
    C68     C    0.43418   0.45676   0.75386   1.000
    C69     C    0.43895   0.41879   0.67507   1.000
    C70     C    0.49159   0.33096   0.66060   1.000
    C71     C    0.49359   0.29503   0.58676   1.000
    C72     C    0.44165   0.34662   0.52630   1.000
    C73     C    0.39015   0.43515   0.53930   1.000
    C74     C    0.38936   0.47059   0.61345   1.000
    C75     C    0.36593   0.32573   0.39865   1.000
    C76     C    0.25693   0.31046   0.41316   1.000
    C77     C    0.17712   0.32476   0.35468   1.000
    C78     C    0.20543   0.35467   0.28214   1.000
    C79     C    0.31540   0.36811   0.26876   1.000
    C80     C    0.39605   0.35314   0.32655   1.000
    C81     C    0.11912   0.37040   0.21991   1.000
    C82     C    0.01813   0.18882   0.09688   1.000
    C83     C    0.98872   0.22118   0.97749   1.000
    C84     C    0.31266   0.02954   0.11189   1.000
    C85     C    0.26872   0.93504   0.01720   1.000
    C86     C    0.06585   0.95667   0.24611   1.000
    C87     C    0.06115   0.91868   0.32489   1.000
    C88     C    0.00871   0.83079   0.33933   1.000
    C89     C    0.00671   0.79488   0.41317   1.000
    C90     C    0.05846   0.84653   0.47365   1.000
    C91     C    0.10981   0.93509   0.46061   1.000
    C92     C    0.11062   0.97051   0.38653   1.000
    C93     C    0.13412   0.82570   0.60131   1.000
    C94     C    0.24311   0.81030   0.58682   1.000
    C95     C    0.32292   0.82465   0.64500   1.000
    C96     C    0.29459   0.85464   0.71782   1.000
    C97     C    0.18462   0.86819   0.73118   1.000
    C98     C    0.10398   0.85318   0.67340   1.000
    C99     C    0.38089   0.87039   0.78005   1.000
    C100    C    0.51821   0.31120   0.09685   1.000
    C101    C    0.48886   0.27881   0.97746   1.000
    C102    C    0.81265   0.47050   0.11183   1.000
    C103    C    0.76869   0.56524   0.01728   1.000
    C104    C    0.56576   0.54326   0.24611   1.000
    C105    C    0.56100   0.58123   0.32491   1.000
    C106    C    0.50838   0.66907   0.33938   1.000
    C107    C    0.50636   0.70498   0.41322   1.000
    C108    C    0.55831   0.65341   0.47368   1.000
    C109    C    0.60979   0.56487   0.46061   1.000
    C110    C    0.61061   0.52944   0.38653   1.000
    C111    C    0.63403   0.67428   0.60132   1.000
    C112    C    0.74302   0.68959   0.58682   1.000
    C113    C    0.82284   0.67523   0.64529   1.000
    C114    C    0.79452   0.64538   0.71784   1.000
    C115    C    0.68456   0.63188   0.73120   1.000
    C116    C    0.60390   0.64690   0.67343   1.000
    C117    C    0.88084   0.62963   0.78007   1.000
    C118    C    0.98183   0.81121   0.90310   1.000
    C119    C    0.01124   0.77885   0.02249   1.000
    C120    C    0.68730   0.97049   0.88808   1.000
    C121    C    0.73124   0.06498   0.98277   1.000
    C122    C    0.93410   0.04335   0.75387   1.000
    C123    C    0.93880   0.08135   0.67500   1.000
    C124    C    0.99128   0.16923   0.66065   1.000
    C125    C    0.99328   0.20514   0.58681   1.000
    C126    C    0.94149   0.15349   0.52632   1.000
    C127    C    0.89014   0.06493   0.53937   1.000
    C128    C    0.88933   0.02952   0.61345   1.000
    C129    C    0.86584   0.17433   0.39866   1.000
    C130    C    0.75684   0.18971   0.41316   1.000
    C131    C    0.67703   0.17540   0.35468   1.000
    C132    C    0.70536   0.14538   0.28216   1.000
    C133    C    0.81534   0.13186   0.26879   1.000
    C134    C    0.89598   0.14683   0.32650   1.000
    C135    C    0.61906   0.12963   0.21993   1.000
    N136    N    0.27310   0.47852   0.92190   1.000
    N137    N    0.09683   0.51561   0.92687   1.000
    N138    N    0.12711   0.45471   0.98822   1.000
    N139    N    0.19272   0.58766   0.82708   1.000
    N140    N    0.51220   0.62404   0.01597   1.000
    N141    N    0.49249   0.76417   0.95278   1.000
    N142    N    0.49388   0.60409   0.93828   1.000
    N143    N    0.53182   0.76995   0.08929   1.000
    N144    N    0.22688   0.97866   0.07807   1.000
    N145    N    0.40313   0.01567   0.07310   1.000
    N146    N    0.37285   0.95495   0.01169   1.000
    N147    N    0.30723   0.08754   0.17305   1.000
    N148    N    0.98756   0.12401   0.98404   1.000
    N149    N    0.00740   0.26416   0.04723   1.000
    N150    N    0.00594   0.10408   0.06173   1.000
    N151    N    0.96798   0.26992   0.91073   1.000
    N152    N    0.72686   0.52150   0.07807   1.000
    N153    N    0.90312   0.48442   0.07310   1.000
    N154    N    0.87284   0.54531   0.01176   1.000
    N155    N    0.80723   0.41236   0.17290   1.000
    N156    N    0.48775   0.37599   0.98400   1.000
    N157    N    0.50746   0.23585   0.04720   1.000
    N158    N    0.50608   0.39593   0.06170   1.000
    N159    N    0.46813   0.23008   0.91069   1.000
    N160    N    0.77307   0.02136   0.92190   1.000
    N161    N    0.59682   0.98435   0.92685   1.000
    N162    N    0.62711   0.04507   0.98829   1.000
    N163    N    0.69272   0.91248   0.82693   1.000
    N164    N    0.01239   0.87601   0.01594   1.000
    N165    N    0.99255   0.73587   0.95275   1.000
    N166    N    0.99401   0.89594   0.93825   1.000
    N167    N    0.03198   0.73010   0.08920   1.000
    O168    O    0.44921   0.30816   0.45420   1.000
    O169    O    0.02168   0.34994   0.22983   1.000
    O170    O    0.15231   0.40403   0.15607   1.000
    O171    O    0.39822   0.54066   0.76630   1.000
    O172    O    0.46817   0.40041   0.81008   1.000
    O173    O    0.05084   0.80813   0.54568   1.000
    O174    O    0.47835   0.84994   0.77010   1.000
    O175    O    0.34766   0.90406   0.84389   1.000
    O176    O    0.10175   0.04053   0.23362   1.000
    O177    O    0.03185   0.90038   0.18987   1.000
    O178    O    0.55074   0.69187   0.54570   1.000
    O179    O    0.97827   0.65008   0.77014   1.000
    O180    O    0.84764   0.59598   0.84391   1.000
    O181    O    0.60174   0.45937   0.23360   1.000
    O182    O    0.53179   0.59962   0.18900   1.000
    O183    O    0.94911   0.19189   0.45429   1.000
    O184    O    0.52160   0.15008   0.22984   1.000
    O185    O    0.65229   0.09597   0.15608   1.000
    O186    O    0.89821   0.95949   0.76635   1.000
    O187    O    0.96810   0.09965   0.81011   1.000
loop_
    _geom_bond_atom_site_label_1
    _geom_bond_atom_site_label_2
    _geom_bond_distance
    _geom_bond_site_symmetry_2
    _ccdc_geom_bond_type
    N146   C85       1.32282      .   S
    N146   N145      1.39817  1_565   S
    N146   Zn0       2.03733  1_554   S
    N154   C103      1.32285      .   S
    N154   N153      1.39866      .   S
    N154   Zn6       2.03775  1_554   S
    N164   C119      1.34536      .   S
    N164   Zn1       2.04388      .   S
    N164   N166      1.39696  1_454   S
    N140   C65       1.34537      .   S
    N140   Zn3       2.04362      .   S
    N140   N142      1.39691  1_554   S
    C85    N144      1.35638      .   S
    C85    H22       1.08458  1_554   S
    C103   N152      1.35636      .   S
    C103   H37       1.08450  1_554   S
    C119   N167      1.36155      .   S
    C119   N165      1.36769  1_454   S
    C65    N143      1.36234      .   S
    C65    N141      1.36751  1_554   S
    H8     C67       1.08439  1_554   S
    H51    C121      1.08459  1_554   S
    N157   Zn4       2.02716      .   S
    N157   C100      1.35794      .   S
    N157   C101      1.36751  1_554   S
    N149   Zn2       2.02714      .   S
    N149   C82       1.35792      .   S
    N149   C83       1.36767  1_454   S
    N158   Zn3       2.00517      .   S
    N158   C100      1.32603      .   S
    N158   N156      1.39708  1_554   S
    N150   Zn1       2.00496  1_545   S
    N150   C82       1.32607      .   S
    N150   N148      1.39695  1_454   S
    N153   Zn2       1.98742  1_655   S
    N153   C102      1.35621      .   S
    N145   Zn4       1.98712      .   S
    N145   C84       1.35647      .   S
    Zn2    O170      1.95888      .   S
    Zn2    N138      2.03719  1_554   S
    Zn4    O185      1.95893      .   S
    Zn4    N162      2.03720  1_554   S
    N144   Zn1       2.04169      .   S
    N144   C84       1.37377  1_565   S
    N152   Zn3       2.04150      .   S
    N152   C102      1.37393      .   S
    N167   H63       1.01844      .   S
    N167   H62       1.02727      .   S
    N143   H20       1.01838      .   S
    N143   H19       1.02656      .   S
    Zn3    O182      1.98723      .   S
    Zn1    O177      2.00021      .   S
    C100   H36       1.08447      .   S
    C82    H21       1.08451      .   S
    C102   N155      1.34451      .   S
    C84    N147      1.34447      .   S
    O170   C81       1.30308      .   S
    O185   C135      1.30326      .   S
    N155   H47       1.03180      .   S
    N155   H46       1.02731      .   S
    N147   H33       1.03208      .   S
    N147   H31       1.02727      .   S
    O182   C104      1.31686      .   S
    O177   C86       1.30525      .   S
    H15    C79       1.08838      .   S
    H58    C133      1.08831      .   S
    C81    O169      1.25707      .   S
    C81    C78       1.49367      .   S
    C135   O184      1.25708      .   S
    C135   C132      1.49367      .   S
    O181   C104      1.26319      .   S
    O176   C86       1.26282  1_545   S
    C86    C87       1.48447      .   S
    C104   C105      1.48456      .   S
    C79    C78       1.40313      .   S
    C79    C80       1.39189      .   S
    C133   C132      1.40317      .   S
    C133   C134      1.39096      .   S
    C78    C77       1.40413      .   S
    C132   C131      1.40413      .   S
    H23    C88       1.08900  1_655   S
    H38    C106      1.08892      .   S
    H16    C80       1.08826      .   S
    H59    C134      1.08797      .   S
    C87    C88       1.40475      .   S
    C87    C92       1.40506      .   S
    C105   C106      1.40476      .   S
    C105   C110      1.40503      .   S
    C134   C129      1.39547      .   S
    C80    C75       1.39428      .   S
    C88    C89       1.39027      .   S
    C106   C107      1.39020      .   S
    C77    H14       1.08929      .   S
    C77    C76       1.39206      .   S
    C131   H57       1.08927      .   S
    C131   C130      1.39210      .   S
    H41    C110      1.08957      .   S
    H26    C92       1.08923  1_545   S
    C110   C109      1.39072      .   S
    C92    C91       1.39077      .   S
    C75    C76       1.39966      .   S
    C75    O168      1.39349      .   S
    C129   C130      1.39970      .   S
    C129   O183      1.39438      .   S
    C76    H13       1.08989      .   S
    C130   H56       1.08981      .   S
    C89    H24       1.08985  1_455   S
    C89    C90       1.39999      .   S
    C107   H39       1.08966      .   S
    C107   C108      1.40005      .   S
    O168   C72       1.38166      .   S
    O183   C126      1.38045      .   S
    C109   C108      1.40159      .   S
    C109   H40       1.08874      .   S
    C91    C90       1.40156      .   S
    C91    H25       1.08785      .   S
    C90    O173      1.38045      .   S
    C108   O178      1.38036      .   S
    H11    C73       1.08820      .   S
    H54    C127      1.08876      .   S
    C72    C73       1.40135      .   S
    C72    C71       1.40005      .   S
    C126   C127      1.40159      .   S
    C126   C125      1.40029      .   S
    H42    C112      1.08982      .   S
    H27    C94       1.08976      .   S
    C73    C74       1.39190      .   S
    C127   C128      1.39078      .   S
    O173   C93       1.39443      .   S
    O178   C111      1.39436      .   S
    H10    C71       1.08965      .   S
    H53    C125      1.08966  1_455   S
    C71    C70       1.39023      .   S
    C125   C124      1.39028      .   S
    C112   C111      1.39966      .   S
    C112   C113      1.39210      .   S
    C94    C93       1.39968      .   S
    C94    C95       1.38855      .   S
    C93    C98       1.39425      .   S
    C111   C116      1.39430      .   S
    C128   H55       1.08920  1_545   S
    C128   C123      1.40388      .   S
    C74    H12       1.08958      .   S
    C74    C69       1.40501      .   S
    H43    C113      1.08948      .   S
    H28    C95       1.08819      .   S
    C95    C96       1.40885      .   S
    C113   C114      1.40406      .   S
    C70    C69       1.40476      .   S
    C70    H9        1.08877      .   S
    C124   C123      1.40462      .   S
    C124   H52       1.08883  1_655   S
    C98    H30       1.08826      .   S
    C98    C97       1.39189      .   S
    C116   H45       1.08826      .   S
    C116   C115      1.39181      .   S
    C123   C122      1.48595      .   S
    C69    C68       1.48441      .   S
    C96    C97       1.40314      .   S
    C96    C99       1.49370      .   S
    C114   C115      1.40311      .   S
    C114   C117      1.49370      .   S
    C97    H29       1.08838      .   S
    C115   H44       1.08839      .   S
    C68    O171      1.26294      .   S
    C68    O172      1.30531      .   S
    C122   O186      1.26278  1_545   S
    C122   O187      1.30525      .   S
    O174   C99       1.25719      .   S
    O179   C117      1.25708      .   S
    C99    O175      1.30313      .   S
    C117   O180      1.30314      .   S
    H60    N163      1.02736      .   S
    H17    N139      1.02732      .   S
    H61    N163      1.03208      .   S
    H18    N139      1.03214      .   S
    O172   Zn32      1.99994      .   S
    O187   Zn5       2.00005      .   S
    N163   C120      1.34433      .   S
    N139   C66       1.34436      .   S
    H50    C118      1.08451      .   S
    H7     C64       1.08447      .   S
    O175   Zn0       1.95892      .   S
    O180   Zn6       1.95838      .   S
    H48    N159      1.02656      .   S
    H34    N151      1.02654      .   S
    C120   N160      1.37377  1_565   S
    C120   N161      1.35628      .   S
    C66    N136      1.37392      .   S
    C66    N137      1.35621      .   S
    C118   N166      1.32608      .   S
    C118   N165      1.35794      .   S
    C64    N142      1.32604      .   S
    C64    N141      1.35793      .   S
    Zn5    N160      2.04168      .   S
    Zn5    N166      2.00501  1_545   S
    Zn5    N148      2.04399      .   S
    Zn32   N136      2.04159      .   S
    Zn32   N142      2.00532      .   S
    Zn32   N156      2.04385      .   S
    H49    N159      1.01843      .   S
    H35    N151      1.01839      .   S
    N159   C101      1.36234      .   S
    N151   C83       1.36229      .   S
    N160   C121      1.35638      .   S
    N136   C67       1.35650      .   S
    Zn6    N137      1.98741  1_655   S
    Zn6    N165      2.02727      .   S
    Zn0    N161      1.98714      .   S
    Zn0    N141      2.02720      .   S
    N161   N162      1.39856  1_565   S
    N137   N138      1.39880      .   S
    C101   N156      1.34537      .   S
    C83    N148      1.34537      .   S
    C67    N138      1.32285      .   S
    C121   N162      1.32283      .   S
