# CIF file generated by openbabel 2.4.90, see http://openbabel.sf.net
data_I
_chemical_name_common ''
_cell_length_a 7.962
_cell_length_b 14.332
_cell_length_c 14.571
_cell_angle_alpha 89.469
_cell_angle_beta 85.678
_cell_angle_gamma 89.185
_space_group_name_H-M_alt 'P 1'
_space_group_name_Hall 'P 1'
loop_
    _symmetry_equiv_pos_as_xyz
    x,y,z
loop_
    _atom_site_label
    _atom_site_type_symbol
    _atom_site_fract_x
    _atom_site_fract_y
    _atom_site_fract_z
    _atom_site_occupancy
    Ag0     Ag   0.27013   0.57773   0.43884   1.000
    Ag1     Ag   0.72671   0.07809   0.06166   1.000
    Ag2     Ag   0.23888   0.06892   0.06305   1.000
    Ag3     Ag   0.73543   0.42150   0.56172   1.000
    Ag4     Ag   0.24096   0.42978   0.56571   1.000
    Ag5     Ag   0.76322   0.93036   0.93655   1.000
    Ag6     Ag   0.27560   0.92115   0.93798   1.000
    H7      H    0.79936   0.60456   0.22027   1.000
    H8      H    0.30387   0.61014   0.22529   1.000
    H9      H    0.90891   0.71821   0.09805   1.000
    H10     H    0.41142   0.72249   0.10135   1.000
    H11     H    0.10109   0.88100   0.31178   1.000
    H12     H    0.60801   0.88754   0.31209   1.000
    H13     H    0.98819   0.75963   0.42615   1.000
    H14     H    0.49908   0.76666   0.42809   1.000
    H15     H    0.70252   0.11074   0.27429   1.000
    H16     H    0.20914   0.10298   0.27777   1.000
    H17     H    0.59336   0.22209   0.39807   1.000
    H18     H    0.09711   0.21589   0.39960   1.000
    H19     H    0.38124   0.38878   0.18820   1.000
    H20     H    0.00000   0.38046   0.18591   1.000
    H21     H    0.49222   0.26869   0.07236   1.000
    H22     H    0.00712   0.25937   0.07210   1.000
    H23     H    0.69809   0.38973   0.77531   1.000
    H24     H    0.20259   0.39542   0.78031   1.000
    H25     H    0.58870   0.27762   0.89900   1.000
    H26     H    0.09135   0.28197   0.90229   1.000
    H27     H    0.39481   0.11238   0.68758   1.000
    H28     H    0.00000   0.11895   0.68792   1.000
    H29     H    0.50564   0.23299   0.57180   1.000
    H30     H    0.01663   0.24005   0.57376   1.000
    H31     H    0.79642   0.89675   0.72204   1.000
    Ag32    Ag   0.76478   0.56947   0.43483   1.000
    H33     H    0.30290   0.88904   0.72532   1.000
    H34     H    0.90995   0.78405   0.60041   1.000
    H35     H    0.41367   0.77789   0.60174   1.000
    H36     H    0.11255   0.61930   0.81466   1.000
    H37     H    0.62360   0.61108   0.81222   1.000
    H38     H    0.99616   0.74017   0.92830   1.000
    H39     H    0.51096   0.73093   0.92789   1.000
    C40     C    0.86651   0.66697   0.23780   1.000
    C41     C    0.37198   0.67259   0.24170   1.000
    C42     C    0.92756   0.72971   0.17029   1.000
    C43     C    0.43186   0.73461   0.17327   1.000
    C44     C    0.01343   0.80851   0.19612   1.000
    C45     C    0.51811   0.81374   0.19782   1.000
    C46     C    0.03324   0.82073   0.28980   1.000
    C47     C    0.54018   0.82685   0.29113   1.000
    C48     C    0.96998   0.75424   0.35296   1.000
    C49     C    0.47876   0.76076   0.35520   1.000
    C50     C    0.59280   0.88129   0.12629   1.000
    C51     C    0.09199   0.87579   0.12548   1.000
    C52     C    0.63055   0.17325   0.25798   1.000
    C53     C    0.13841   0.16553   0.26016   1.000
    C54     C    0.56978   0.23475   0.32637   1.000
    C55     C    0.07609   0.22788   0.32746   1.000
    C56     C    0.47875   0.31411   0.30206   1.000
    C57     C    0.00000   0.30712   0.30150   1.000
    C58     C    0.45280   0.32791   0.20900   1.000
    C59     C    0.00000   0.31989   0.20797   1.000
    C60     C    0.51535   0.26224   0.14499   1.000
    C61     C    0.02780   0.25364   0.14510   1.000
    C62     C    0.90814   0.37471   0.37190   1.000
    C63     C    0.40356   0.38115   0.37381   1.000
    C64     C    0.63016   0.32729   0.75869   1.000
    C65     C    0.13567   0.33299   0.76258   1.000
    C66     C    0.56922   0.26541   0.82698   1.000
    C67     C    0.07366   0.27038   0.82996   1.000
    C68     C    0.48321   0.18627   0.80220   1.000
    C69     C    0.00000   0.19156   0.80389   1.000
    C70     C    0.46241   0.17308   0.70876   1.000
    C71     C    0.00000   0.17922   0.71010   1.000
    C72     C    0.52489   0.23902   0.64481   1.000
    C73     C    0.03378   0.24557   0.64707   1.000
    C74     C    0.90880   0.12433   0.87438   1.000
    C75     C    0.40768   0.11877   0.87356   1.000
    C76     C    0.86701   0.83421   0.73983   1.000
    C77     C    0.37475   0.82654   0.74181   1.000
    C78     C    0.93017   0.77197   0.67263   1.000
    C79     C    0.43648   0.76517   0.67353   1.000
    C80     C    0.01978   0.69274   0.69879   1.000
    C81     C    0.52730   0.68580   0.69804   1.000
    C82     C    0.04173   0.67987   0.79242   1.000
    C83     C    0.55223   0.67195   0.79122   1.000
    C84     C    0.97638   0.74601   0.85521   1.000
    C85     C    0.48874   0.73748   0.85514   1.000
    C86     C    0.60340   0.61888   0.62640   1.000
    C87     C    0.09870   0.62522   0.62851   1.000
    N88     N    0.88728   0.67809   0.32810   1.000
    N89     N    0.39507   0.68448   0.33167   1.000
    N90     N    0.60375   0.18578   0.16828   1.000
    N91     N    0.11489   0.17730   0.17000   1.000
    N92     N    0.60839   0.31528   0.66857   1.000
    N93     N    0.11623   0.32173   0.67214   1.000
    N94     N    0.88946   0.82235   0.83011   1.000
    N95     N    0.40048   0.81393   0.83165   1.000
    O96     O    0.65238   0.95554   0.15626   1.000
    O97     O    0.15619   0.94838   0.15647   1.000
    O98     O    0.59272   0.85597   0.04252   1.000
    O99     O    0.09110   0.85182   0.04147   1.000
    O100    O    0.84361   0.44868   0.34064   1.000
    O101    O    0.34101   0.45628   0.34400   1.000
    O102    O    0.91052   0.34965   0.45600   1.000
    O103    O    0.40692   0.35462   0.45749   1.000
    O104    O    0.84406   0.05196   0.84334   1.000
    O105    O    0.34794   0.04462   0.84355   1.000
    O106    O    0.90987   0.14817   0.95844   1.000
    O107    O    0.40758   0.14405   0.95737   1.000
    O108    O    0.66605   0.54380   0.65621   1.000
    O109    O    0.16337   0.55132   0.65977   1.000
    O110    O    0.60018   0.64540   0.54269   1.000
    O111    O    0.09666   0.65035   0.54439   1.000
loop_
    _geom_bond_atom_site_label_1
    _geom_bond_atom_site_label_2
    _geom_bond_distance
    _geom_bond_site_symmetry_2
    _ccdc_geom_bond_type
    O99    C51       1.27499      .   S
    O99    Ag6       2.25818  1_554   S
    O98    C50       1.27666      .   S
    O98    Ag5       2.24903  1_554   S
    Ag1    O96       2.27973  1_545   S
    Ag1    N90       2.35077      .   S
    Ag1    Ag5       2.80443  1_544   S
    Ag1    O106      2.25398  1_554   S
    Ag2    O97       2.26378  1_545   S
    Ag2    N91       2.36326      .   S
    Ag2    Ag6       2.80465  1_544   S
    Ag2    O107      2.24349  1_554   S
    H22    C61       1.09066      .   S
    H21    C60       1.09073      .   S
    H9     C42       1.08838      .   S
    H10    C43       1.08846      .   S
    C51    O97       1.26737      .   S
    C51    C44       1.51081      .   S
    C50    O96       1.26582      .   S
    C50    C45       1.51043      .   S
    C60    N90       1.34855      .   S
    C60    C58       1.39161      .   S
    C61    N91       1.34856      .   S
    C61    C59       1.33027      .   S
    N90    C52       1.35011      .   S
    N91    C53       1.34953      .   S
    C42    C44       1.39757  1_655   S
    C42    C40       1.39152      .   S
    C43    C45       1.39732      .   S
    C43    C41       1.39116      .   S
    H20    C59       0.92287      .   S
    H19    C58       1.08846      .   S
    C44    C46       1.39876      .   S
    C45    C47       1.39878      .   S
    C59    C57       1.37331      .   S
    C58    C56       1.39878      .   S
    H7     C40       1.09067      .   S
    H8     C41       1.09068      .   S
    C40    N88       1.34970      .   S
    C41    N89       1.35013      .   S
    C52    H15       1.09065      .   S
    C52    C54       1.39109      .   S
    C53    H16       1.09072      .   S
    C53    C55       1.39170      .   S
    C46    H11       1.08856      .   S
    C46    C48       1.39144  1_455   S
    C47    H12       1.08848      .   S
    C47    C49       1.39133      .   S
    C57    C55       1.34424      .   S
    C57    C62       1.55267  1_455   S
    C56    C54       1.39723      .   S
    C56    C63       1.51081      .   S
    C54    H17       1.08842      .   S
    C55    H18       1.08844      .   S
    N88    C48       1.34882      .   S
    N88    Ag32      2.35863      .   S
    N89    C49       1.34858      .   S
    N89    Ag0       2.35242      .   S
    O100   C62       1.26729      .   S
    O100   Ag32      2.27111      .   S
    O101   C63       1.26682      .   S
    O101   Ag0       2.27082      .   S
    C48    H13       1.09074      .   S
    C49    H14       1.09064      .   S
    C62    O102      1.27531      .   S
    C63    O103      1.27594      .   S
    Ag32   O110      2.24775      .   S
    Ag32   Ag3       2.80111      .   S
    Ag0    O111      2.24163      .   S
    Ag0    Ag4       2.80069      .   S
    O102   Ag3       2.24531      .   S
    O103   Ag4       2.25164      .   S
    O110   C86       1.27621      .   S
    O111   C87       1.27550      .   S
    Ag3    O108      2.27494      .   S
    Ag3    N92       2.35103      .   S
    Ag4    O109      2.27600      .   S
    Ag4    N93       2.35723      .   S
    H29    C72       1.09061      .   S
    H30    C73       1.09069      .   S
    H34    C78       1.08842      .   S
    H35    C79       1.08839      .   S
    C86    O108      1.26656      .   S
    C86    C81       1.51114      .   S
    C87    O109      1.26701      .   S
    C87    C80       1.51135      .   S
    C72    N92       1.34872      .   S
    C72    C70       1.39140      .   S
    C73    N93       1.34899      .   S
    C73    C71       1.33186      .   S
    N92    C64       1.35027      .   S
    N93    C65       1.34982      .   S
    C78    C80       1.39768  1_655   S
    C78    C76       1.39169      .   S
    C79    C81       1.39732      .   S
    C79    C77       1.39110      .   S
    H27    C70       1.08847      .   S
    H28    C71       0.92516      .   S
    C81    C83       1.39878      .   S
    C80    C82       1.39868      .   S
    C70    C68       1.39876      .   S
    C71    C69       1.37964      .   S
    H31    C76       1.09069      .   S
    H33    C77       1.09062      .   S
    C76    N94       1.34968      .   S
    C77    N95       1.35025      .   S
    C64    H23       1.09067      .   S
    C64    C66       1.39118      .   S
    C65    H24       1.09065      .   S
    C65    C67       1.39151      .   S
    C83    H37       1.08847      .   S
    C83    C85       1.39170      .   S
    C82    H36       1.08856      .   S
    C82    C84       1.39155  1_455   S
    C68    C66       1.39743      .   S
    C68    C75       1.51076      .   S
    C69    C67       1.35083      .   S
    C69    C74       1.54913  1_455   S
    C66    H25       1.08845      .   S
    C67    H26       1.08836      .   S
    N94    C84       1.34876      .   S
    N94    Ag5       2.36162      .   S
    N95    C85       1.34871      .   S
    N95    Ag6       2.34921      .   S
    O104   C74       1.26700      .   S
    O104   Ag5       2.26996  1_545   S
    O105   C75       1.26551      .   S
    O105   Ag6       2.28486  1_545   S
    C85    H39       1.09070      .   S
    C84    H38       1.09062      .   S
    C75    O107      1.27693      .   S
    C74    O106      1.27525      .   S
