# CIF file generated by openbabel 2.4.90, see http://openbabel.sf.net
data_I
_chemical_name_common ''
_cell_length_a 7.962
_cell_length_b 14.332
_cell_length_c 14.571
_cell_angle_alpha 89.469
_cell_angle_beta 85.678
_cell_angle_gamma 89.185
_space_group_name_H-M_alt 'P 1'
_space_group_name_Hall 'P 1'
loop_
    _symmetry_equiv_pos_as_xyz
    x,y,z
loop_
    _atom_site_label
    _atom_site_type_symbol
    _atom_site_fract_x
    _atom_site_fract_y
    _atom_site_fract_z
    _atom_site_occupancy
    Ag0     Ag   0.27013   0.57773   0.43884   1.000
    Ag1     Ag   0.72671   0.07809   0.06166   1.000
    Ag2     Ag   0.23888   0.06892   0.06305   1.000
    Ag3     Ag   0.73543   0.42150   0.56172   1.000
    Ag4     Ag   0.24096   0.42978   0.56571   1.000
    Ag5     Ag   0.76322   0.93036   0.93655   1.000
    Ag6     Ag   0.27560   0.92115   0.93798   1.000
    Ag7     Ag   0.76478   0.56947   0.43483   1.000
    C8      C    0.59280   0.88129   0.12629   1.000
    C9      C    0.09199   0.87579   0.12548   1.000
    C10     C    0.90814   0.37471   0.37190   1.000
    C11     C    0.40356   0.38115   0.37381   1.000
    C12     C    0.90880   0.12433   0.87438   1.000
    C13     C    0.40768   0.11877   0.87356   1.000
    C14     C    0.60340   0.61888   0.62640   1.000
    C15     C    0.09870   0.62522   0.62851   1.000
    O16     O    0.65238   0.95554   0.15626   1.000
    O17     O    0.15619   0.94838   0.15647   1.000
    O18     O    0.59272   0.85597   0.04252   1.000
    O19     O    0.09110   0.85182   0.04147   1.000
    O20     O    0.84361   0.44868   0.34064   1.000
    O21     O    0.34101   0.45628   0.34400   1.000
    O22     O    0.91052   0.34965   0.45600   1.000
    O23     O    0.40692   0.35462   0.45749   1.000
    O24     O    0.84406   0.05196   0.84334   1.000
    O25     O    0.34794   0.04462   0.84355   1.000
    O26     O    0.90987   0.14817   0.95844   1.000
    O27     O    0.40758   0.14405   0.95737   1.000
    O28     O    0.66605   0.54380   0.65621   1.000
    O29     O    0.16337   0.55132   0.65977   1.000
    O30     O    0.60018   0.64540   0.54269   1.000
    O31     O    0.09666   0.65035   0.54439   1.000
    Ts32    Ts   0.31177   0.61331   0.40312   1.000
    Ts33    Ts   0.68573   0.11399   0.09720   1.000
    Ts34    Ts   0.19755   0.10505   0.09870   1.000
    Ts35    Ts   0.69309   0.38609   0.59734   1.000
    Ts36    Ts   0.19938   0.39377   0.60119   1.000
    Ts37    Ts   0.80530   0.89436   0.90107   1.000
    Ts38    Ts   0.31723   0.88541   0.90253   1.000
    Ts39    Ts   0.80561   0.60567   0.39926   1.000
    Og40    Og   0.56790   0.85877   0.15013   1.000
    Og41    Og   0.06580   0.85336   0.14903   1.000
    Og42    Og   0.93876   0.35218   0.34843   1.000
    Og43    Og   0.42862   0.35880   0.34989   1.000
    Og44    Og   0.93920   0.14674   0.85089   1.000
    Og45    Og   0.43286   0.14127   0.84977   1.000
    Og46    Og   0.57803   0.64119   0.65028   1.000
    Og47    Og   0.07239   0.64772   0.65194   1.000
loop_
    _geom_bond_atom_site_label_1
    _geom_bond_atom_site_label_2
    _geom_bond_distance
    _geom_bond_site_symmetry_2
    _ccdc_geom_bond_type
    O19    C9        1.27499      .   S
    O19    Ag6       2.25818  1_554   S
    O18    C8        1.27666      .   S
    O18    Ag5       2.24903  1_554   S
    Ag1    O16       2.27973  1_545   S
    Ag1    Ag5       2.80443  1_544   S
    Ag1    O26       2.25398  1_554   S
    Ag2    O17       2.26378  1_545   S
    Ag2    Ag6       2.80465  1_544   S
    Ag2    O27       2.24349  1_554   S
    C9     O17       1.26737      .   S
    C8     O16       1.26582      .   S
    O20    C10       1.26729      .   S
    O20    Ag7       2.27111      .   S
    O21    C11       1.26682      .   S
    O21    Ag0       2.27082      .   S
    C10    O22       1.27531      .   S
    C11    O23       1.27594      .   S
    Ag7    O30       2.24775      .   S
    Ag7    Ag3       2.80111      .   S
    Ag0    O31       2.24163      .   S
    Ag0    Ag4       2.80069      .   S
    O22    Ag3       2.24531      .   S
    O23    Ag4       2.25164      .   S
    O30    C14       1.27621      .   S
    O31    C15       1.27550      .   S
    Ag3    O28       2.27494      .   S
    Ag4    O29       2.27600      .   S
    C14    O28       1.26656      .   S
    C15    O29       1.26701      .   S
    O24    C12       1.26700      .   S
    O24    Ag5       2.26996  1_545   S
    O25    C13       1.26551      .   S
    O25    Ag6       2.28486  1_545   S
    C13    O27       1.27693      .   S
    C12    O26       1.27525      .   S
    Ag0    Ts32      0.78414      .   S
    Ag1    Ts33      0.78359      .   S
    Ag2    Ts34      0.78775      .   S
    Ag3    Ts35      0.78368      .   S
    Ag4    Ts36      0.78574      .   S
    Ag5    Ts37      0.78721      .   S
    Ag6    Ts38      0.78307      .   S
    Ag7    Ts39      0.78621      .   S
    C8     Og40      0.50348      .   S
    C9     Og41      0.50360      .   S
    C10    Og42      0.51756      .   S
    C11    Og43      0.50360      .   S
    C12    Og44      0.51638      .   S
    C13    Og45      0.50359      .   S
    C14    Og46      0.50371      .   S
    C15    Og47      0.50378      .   S
