# CIF file generated by openbabel 2.4.90, see http://openbabel.sf.net
data_I
_chemical_name_common ''
_cell_length_a 7.962
_cell_length_b 14.332
_cell_length_c 14.571
_cell_angle_alpha 89.469
_cell_angle_beta 85.678
_cell_angle_gamma 89.185
_space_group_name_H-M_alt 'P 1'
_space_group_name_Hall 'P 1'
loop_
    _symmetry_equiv_pos_as_xyz
    x,y,z
loop_
    _atom_site_label
    _atom_site_type_symbol
    _atom_site_fract_x
    _atom_site_fract_y
    _atom_site_fract_z
    _atom_site_occupancy
    N0      N    0.45583   0.74799   0.26576   1.000
    N1      N    0.94955   0.74216   0.26313   1.000
    N2      N    0.95396   0.75874   0.76544   1.000
    N3      N    0.54203   0.24883   0.23416   1.000
    N4      N    0.06705   0.24100   0.23476   1.000
    N5      N    0.54655   0.25191   0.73437   1.000
    N6      N    0.06699   0.25778   0.73700   1.000
    N7      N    0.46311   0.75098   0.76585   1.000
    Zr8     Zr   0.25266   0.50331   0.50157   1.000
    O9      O    0.18773   0.41004   0.58976   1.000
    O10     O    0.32344   0.59643   0.41354   1.000
    O11     O    0.12963   0.60608   0.60805   1.000
    O12     O    0.37213   0.40077   0.39381   1.000
    Zr13    Zr   0.25212   0.99669   0.99987   1.000
    O14     O    0.12663   0.89442   0.10592   1.000
    O15     O    0.32635   0.90297   0.91260   1.000
    O16     O    0.37406   0.09945   0.89300   1.000
    O17     O    0.18704   0.08937   0.08775   1.000
    Zr18    Zr   0.75401   0.49651   0.49880   1.000
    O19     O    0.82090   0.58974   0.41055   1.000
    O20     O    0.63412   0.59908   0.60642   1.000
    O21     O    0.68162   0.40333   0.58678   1.000
    O22     O    0.88229   0.39373   0.39226   1.000
    Zr23    Zr   0.74882   0.00321   0.99993   1.000
    O24     O    0.87976   0.10554   0.89400   1.000
    O25     O    0.81948   0.91038   0.91216   1.000
    O26     O    0.67623   0.09680   0.08725   1.000
    O27     O    0.62723   0.90048   0.10692   1.000
loop_
    _geom_bond_atom_site_label_1
    _geom_bond_atom_site_label_2
    _geom_bond_distance
    _geom_bond_site_symmetry_2
    _ccdc_geom_bond_type
    Zr8    O9        1.89563      .   S
    N6     O9        3.15445      .   S
    Zr8    O10       1.90384      .   S
    N0     O10       3.17840      .   S
    Zr8    O11       2.30416      .   S
    N2     O11       3.39482  1_655   S
    Zr8    O12       2.30384      .   S
    N3     O12       3.39393      .   S
    Zr13   O14       2.30247  1_556   S
    N1     O14       3.39194  1_655   S
    Zr13   O15       1.91466      .   S
    N7     O15       3.18920      .   S
    Zr13   O16       2.30369  1_565   S
    N5     O16       3.39354      .   S
    Zr13   O17       1.89338  1_566   S
    N4     O17       3.15314      .   S
    Zr18   O19       1.89939      .   S
    N1     O19       3.17498      .   S
    Zr18   O20       2.30404      .   S
    N7     O20       3.39451      .   S
    Zr18   O21       1.90731      .   S
    N5     O21       3.18157      .   S
    Zr18   O22       2.32015      .   S
    N4     O22       3.42277  1_455   S
    Zr23   O24       2.31926      .   S
    N6     O24       3.42088  1_455   S
    Zr23   O25       1.90373  1_545   S
    N2     O25       3.18038      .   S
    Zr23   O26       1.91064  1_556   S
    N3     O26       3.18548      .   S
    Zr23   O27       2.30343  1_546   S
    N0     O27       3.39279      .   S
