# CIF file generated by openbabel 2.4.90, see http://openbabel.sf.net
data_I
_chemical_name_common ''
_cell_length_a 18.394
_cell_length_b 18.394
_cell_length_c 18.394
_cell_angle_alpha 60.411
_cell_angle_beta 60.407
_cell_angle_gamma 60.411
_space_group_name_H-M_alt 'P 1'
_space_group_name_Hall 'P 1'
loop_
    _symmetry_equiv_pos_as_xyz
    x,y,z
loop_
    _atom_site_label
    _atom_site_type_symbol
    _atom_site_fract_x
    _atom_site_fract_y
    _atom_site_fract_z
    _atom_site_occupancy
    Zn0     Zn   0.79397   0.79393   0.79393   1.000
    Zn1     Zn   0.20697   0.38020   0.20693   1.000
    Zn2     Zn   0.20697   0.20694   0.38020   1.000
    Zn3     Zn   0.38020   0.20698   0.20697   1.000
    Zn4     Zn   0.61979   0.79304   0.79303   1.000
    Zn5     Zn   0.79302   0.79308   0.61980   1.000
    Zn6     Zn   0.79302   0.61982   0.79307   1.000
    Zn7     Zn   0.20602   0.20609   0.20607   1.000
    C8      C    0.11098   0.38859   0.11096   1.000
    C9      C    0.11098   0.11098   0.38858   1.000
    C10     C    0.38856   0.11099   0.11099   1.000
    C11     C    0.61143   0.88902   0.88902   1.000
    C12     C    0.88900   0.88905   0.61142   1.000
    C13     C    0.88901   0.61143   0.88904   1.000
    C14     C    0.11159   0.38910   0.38910   1.000
    C15     C    0.38910   0.11158   0.38911   1.000
    C16     C    0.38910   0.38912   0.11157   1.000
    C17     C    0.61089   0.88842   0.61089   1.000
    C18     C    0.88837   0.61092   0.61090   1.000
    C19     C    0.61089   0.61090   0.88841   1.000
    O20     O    0.13386   0.42856   0.30543   1.000
    O21     O    0.30543   0.13379   0.42859   1.000
    O22     O    0.42857   0.30546   0.13388   1.000
    O23     O    0.57142   0.86612   0.69455   1.000
    O24     O    0.86615   0.69458   0.57144   1.000
    O25     O    0.69455   0.57144   0.86620   1.000
    O26     O    0.86613   0.57146   0.69457   1.000
    O27     O    0.69456   0.86624   0.57140   1.000
    O28     O    0.57142   0.69456   0.86613   1.000
    O29     O    0.42856   0.13391   0.30545   1.000
    O30     O    0.13384   0.30544   0.42856   1.000
    O31     O    0.30543   0.42858   0.13300   1.000
    O32     O    0.24991   0.24992   0.24992   1.000
    O33     O    0.75008   0.75010   0.75008   1.000
    O34     O    0.13266   0.30489   0.13273   1.000
    O35     O    0.13348   0.42807   0.13340   1.000
    O36     O    0.13266   0.13275   0.30488   1.000
    O37     O    0.13347   0.13342   0.42807   1.000
    O38     O    0.30486   0.13272   0.13271   1.000
    O39     O    0.42805   0.13347   0.13344   1.000
    O40     O    0.69513   0.86730   0.86728   1.000
    O41     O    0.57194   0.86655   0.86656   1.000
    O42     O    0.86733   0.86727   0.69512   1.000
    O43     O    0.86652   0.86660   0.57193   1.000
    O44     O    0.86732   0.69512   0.86727   1.000
    O45     O    0.86651   0.57194   0.86660   1.000
loop_
    _geom_bond_atom_site_label_1
    _geom_bond_atom_site_label_2
    _geom_bond_distance
    _geom_bond_site_symmetry_2
    _ccdc_geom_bond_type
    C8     O34       1.27750      .   S
    C8     O35       1.27693      .   S
    C10    O38       1.27750      .   S
    C10    O39       1.27700      .   S
    C16    O31       1.27705      .   S
    C16    O22       1.27705      .   S
    O38    Zn7       1.97473      .   S
    O34    Zn7       1.97448      .   S
    O31    Zn1       1.97125      .   S
    O35    Zn1       1.97129      .   S
    O39    Zn3       1.97155      .   S
    O22    Zn3       1.97114      .   S
    Zn7    O36       1.97434      .   S
    Zn1    O32       1.96665      .   S
    Zn1    O20       1.97140      .   S
    Zn3    O29       1.97126      .   S
    O32    Zn2       1.96666      .   S
    O36    C9        1.27755      .   S
    O20    C14       1.27713      .   S
    O29    C15       1.27698      .   S
    Zn2    O37       1.97123      .   S
    Zn2    O30       1.97135      .   S
    Zn2    O21       1.97125      .   S
    C9     O37       1.27699      .   S
    C14    O30       1.27702      .   S
    C15    O21       1.27708      .   S
    O27    C17       1.27710      .   S
    O27    Zn5       1.97135      .   S
    O24    C18       1.27703      .   S
    O24    Zn5       1.97133      .   S
    O43    C12       1.27700      .   S
    O43    Zn5       1.97123      .   S
    C17    O23       1.27697      .   S
    C18    O26       1.27712      .   S
    C12    O42       1.27754      .   S
    Zn5    O33       1.96666      .   S
    O23    Zn4       1.97126      .   S
    O26    Zn6       1.97141      .   S
    O42    Zn0       1.97433      .   S
    O33    Zn6       1.96665      .   S
    Zn4    O28       1.97114      .   S
    Zn4    O41       1.97162      .   S
    Zn6    O25       1.97111      .   S
    Zn6    O45       1.97129      .   S
    Zn0    O44       1.97445      .   S
    Zn0    O40       1.97467      .   S
    O28    C19       1.27705      .   S
    O25    C19       1.27704      .   S
    O41    C11       1.27691      .   S
    O45    C13       1.27700      .   S
    O44    C13       1.27749      .   S
    O40    C11       1.27748      .   S
    O32    Zn7       1.96995      .   S
    O32    Zn3       1.96671      .   S
    O33    Zn0       1.96995      .   S
    O33    Zn4       1.96671      .   S
