# CIF file generated by openbabel 2.4.90, see http://openbabel.sf.net
data_I
_chemical_name_common ''
_cell_length_a 18.394
_cell_length_b 18.394
_cell_length_c 18.394
_cell_angle_alpha 60.411
_cell_angle_beta 60.407
_cell_angle_gamma 60.411
_space_group_name_H-M_alt 'P 1'
_space_group_name_Hall 'P 1'
loop_
    _symmetry_equiv_pos_as_xyz
    x,y,z
loop_
    _atom_site_label
    _atom_site_type_symbol
    _atom_site_fract_x
    _atom_site_fract_y
    _atom_site_fract_z
    _atom_site_occupancy
    Zr0     Zr   0.20602   0.20609   0.20607   1.000
    Zr1     Zr   0.79397   0.79393   0.79393   1.000
    Zr2     Zr   0.20697   0.38020   0.20693   1.000
    Zr3     Zr   0.20697   0.20694   0.38020   1.000
    Zr4     Zr   0.38020   0.20698   0.20697   1.000
    Zr5     Zr   0.61979   0.79304   0.79303   1.000
    Zr6     Zr   0.79302   0.79308   0.61980   1.000
    Zr7     Zr   0.79302   0.61982   0.79307   1.000
    Zr8     Zr   0.11098   0.38859   0.11096   1.000
    Zr9     Zr   0.11098   0.11098   0.38858   1.000
    Zr10    Zr   0.38856   0.11099   0.11099   1.000
    Zr11    Zr   0.61143   0.88902   0.88902   1.000
    Zr12    Zr   0.88900   0.88905   0.61142   1.000
    Zr13    Zr   0.88901   0.61143   0.88904   1.000
    Zr14    Zr   0.11159   0.38910   0.38910   1.000
    Zr15    Zr   0.38910   0.11158   0.38911   1.000
    Zr16    Zr   0.38910   0.38912   0.11157   1.000
    Zr17    Zr   0.61089   0.88842   0.61089   1.000
    Zr18    Zr   0.88837   0.61092   0.61090   1.000
    Zr19    Zr   0.61089   0.61090   0.88841   1.000
    Zr20    Zr   0.13386   0.42856   0.30543   1.000
    Zr21    Zr   0.30543   0.13379   0.42859   1.000
    Zr22    Zr   0.42857   0.30546   0.13388   1.000
    Zr23    Zr   0.57142   0.86612   0.69455   1.000
    Zr24    Zr   0.86615   0.69458   0.57144   1.000
    Zr25    Zr   0.69455   0.57144   0.86620   1.000
    Zr26    Zr   0.86613   0.57146   0.69457   1.000
    Zr27    Zr   0.69456   0.86624   0.57140   1.000
    Zr28    Zr   0.57142   0.69456   0.86613   1.000
    Zr29    Zr   0.42856   0.13391   0.30545   1.000
    Zr30    Zr   0.13384   0.30544   0.42856   1.000
    Zr31    Zr   0.30543   0.42858   0.13300   1.000
    Zr32    Zr   0.24991   0.24992   0.24992   1.000
    Zr33    Zr   0.75008   0.75010   0.75008   1.000
    Zr34    Zr   0.13266   0.30489   0.13273   1.000
    Zr35    Zr   0.13348   0.42807   0.13340   1.000
    Zr36    Zr   0.13266   0.13275   0.30488   1.000
    Zr37    Zr   0.13347   0.13342   0.42807   1.000
    Zr38    Zr   0.30486   0.13272   0.13271   1.000
    Zr39    Zr   0.42805   0.13347   0.13344   1.000
    Zr40    Zr   0.69513   0.86730   0.86728   1.000
    Zr41    Zr   0.57194   0.86655   0.86656   1.000
    Zr42    Zr   0.86733   0.86727   0.69512   1.000
    Zr43    Zr   0.86652   0.86660   0.57193   1.000
    Zr44    Zr   0.86732   0.69512   0.86727   1.000
    Zr45    Zr   0.86651   0.57194   0.86660   1.000
    O46     O    0.12182   0.34674   0.12185   1.000
    O47     O    0.12223   0.40833   0.12218   1.000
    O48     O    0.34671   0.12186   0.12185   1.000
    O49     O    0.40830   0.12223   0.12222   1.000
    O50     O    0.34727   0.40885   0.12229   1.000
    O51     O    0.40883   0.34729   0.12273   1.000
    O52     O    0.25544   0.16941   0.16939   1.000
    O53     O    0.16934   0.25549   0.16940   1.000
    O54     O    0.25620   0.40439   0.16997   1.000
    O55     O    0.17022   0.40414   0.17017   1.000
    O56     O    0.40412   0.17023   0.17021   1.000
    O57     O    0.40438   0.25622   0.17043   1.000
    O58     O    0.16934   0.16942   0.25548   1.000
    O59     O    0.22844   0.31506   0.22843   1.000
    O60     O    0.17042   0.40438   0.25618   1.000
    O61     O    0.40438   0.17044   0.25621   1.000
    O62     O    0.22844   0.22843   0.31506   1.000
    O63     O    0.12182   0.12186   0.34673   1.000
    O64     O    0.12273   0.40883   0.34726   1.000
    O65     O    0.40883   0.12274   0.34728   1.000
    O66     O    0.17022   0.17018   0.40414   1.000
    O67     O    0.17041   0.25619   0.40438   1.000
    O68     O    0.25620   0.17037   0.40440   1.000
    O69     O    0.12222   0.12220   0.40833   1.000
    O70     O    0.12272   0.34727   0.40883   1.000
    O71     O    0.34726   0.12269   0.40885   1.000
    O72     O    0.65273   0.87733   0.59115   1.000
    O73     O    0.74379   0.82966   0.59560   1.000
    O74     O    0.87726   0.65275   0.59117   1.000
    O75     O    0.82959   0.74383   0.59562   1.000
    O76     O    0.87776   0.87782   0.59168   1.000
    O77     O    0.82977   0.82984   0.59587   1.000
    O78     O    0.59116   0.87727   0.65272   1.000
    O79     O    0.87725   0.59119   0.65274   1.000
    O80     O    0.87817   0.87816   0.65327   1.000
    O81     O    0.77155   0.77159   0.68494   1.000
    O82     O    0.59561   0.82958   0.74379   1.000
    O83     O    0.82958   0.59564   0.74382   1.000
    O84     O    0.83065   0.83060   0.74453   1.000
    O85     O    0.77155   0.68496   0.77158   1.000
    O86     O    0.59561   0.74380   0.82958   1.000
    O87     O    0.59587   0.82980   0.82980   1.000
    O88     O    0.74379   0.59563   0.82964   1.000
    O89     O    0.82977   0.59588   0.82984   1.000
    O90     O    0.83065   0.74453   0.83060   1.000
    O91     O    0.74455   0.83062   0.83061   1.000
    O92     O    0.59116   0.65273   0.87727   1.000
    O93     O    0.65272   0.59117   0.87731   1.000
    O94     O    0.59169   0.87779   0.87779   1.000
    O95     O    0.87776   0.59169   0.87782   1.000
    O96     O    0.87817   0.65328   0.87816   1.000
    O97     O    0.65328   0.87816   0.87815   1.000
    O98     O    0.22797   0.22801   0.22800   1.000
    O99     O    0.31505   0.22845   0.22845   1.000
    O100    O    0.77202   0.77201   0.77201   1.000
    O101    O    0.68494   0.77157   0.77156   1.000
    N102    N    0.49999   0.00001   1.00000   1.000
    O103    O    0.54133   0.95885   0.95883   1.000
    O104    O    0.45865   0.04117   0.04116   1.000
    N105    N    0.49999   0.00001   0.50000   1.000
    O106    O    0.45887   0.04139   0.45888   1.000
    O107    O    0.54112   0.95863   0.54112   1.000
    N108    N    0.99999   0.50001   0.00000   1.000
    O109    O    0.95884   0.54134   0.95885   1.000
    O110    O    0.04115   0.45867   0.04115   1.000
    N111    N    1.00000   0.50001   0.50000   1.000
    O112    O    0.04139   0.45888   0.45887   1.000
    O113    O    0.95861   0.54114   0.54112   1.000
    N114    N    0.99999   0.00001   0.49992   1.000
    O115    O    0.95884   0.95886   0.54130   1.000
    O116    O    0.04115   0.04116   0.45863   1.000
    N117    N    0.49999   0.50001   0.00000   1.000
    O118    O    0.54112   0.54113   0.95862   1.000
    O119    O    0.45887   0.45889   0.04138   1.000
loop_
    _geom_bond_atom_site_label_1
    _geom_bond_atom_site_label_2
    _geom_bond_distance
    _geom_bond_site_symmetry_2
    _ccdc_geom_bond_type
    Zr8    O46       0.63875      .   S
    Zr34   O46       0.63875      .   S
    Zr8    O47       0.63847      .   S
    Zr35   O47       0.63847      .   S
    Zr10   O48       0.63875      .   S
    Zr38   O48       0.63875      .   S
    Zr10   O49       0.63850      .   S
    Zr39   O49       0.63850      .   S
    Zr16   O50       0.63853      .   S
    Zr31   O50       0.63853      .   S
    Zr16   O51       0.63853      .   S
    Zr22   O51       0.63853      .   S
    Zr38   O52       0.98737      .   S
    Zr0    O52       0.98737      .   S
    Zr34   O53       0.98724      .   S
    Zr0    O53       0.98724      .   S
    Zr31   O54       0.98562      .   S
    Zr2    O54       0.98562      .   S
    Zr35   O55       0.98565      .   S
    Zr2    O55       0.98565      .   S
    Zr39   O56       0.98578      .   S
    Zr4    O56       0.98578      .   S
    Zr22   O57       0.98557      .   S
    Zr4    O57       0.98557      .   S
    Zr0    O58       0.98717      .   S
    Zr36   O58       0.98717      .   S
    Zr2    O59       0.98332      .   S
    Zr32   O59       0.98332      .   S
    Zr2    O60       0.98570      .   S
    Zr20   O60       0.98570      .   S
    Zr4    O61       0.98563      .   S
    Zr29   O61       0.98563      .   S
    Zr32   O62       0.98333      .   S
    Zr3    O62       0.98333      .   S
    Zr36   O63       0.63877      .   S
    Zr9    O63       0.63877      .   S
    Zr20   O64       0.63856      .   S
    Zr14   O64       0.63856      .   S
    Zr29   O65       0.63849      .   S
    Zr15   O65       0.63849      .   S
    Zr3    O66       0.98561      .   S
    Zr37   O66       0.98561      .   S
    Zr3    O67       0.98567      .   S
    Zr30   O67       0.98567      .   S
    Zr3    O68       0.98562      .   S
    Zr21   O68       0.98562      .   S
    Zr9    O69       0.63849      .   S
    Zr37   O69       0.63849      .   S
    Zr14   O70       0.63851      .   S
    Zr30   O70       0.63851      .   S
    Zr15   O71       0.63854      .   S
    Zr21   O71       0.63854      .   S
    Zr27   O72       0.63855      .   S
    Zr17   O72       0.63855      .   S
    Zr27   O73       0.98568      .   S
    Zr6    O73       0.98568      .   S
    Zr24   O74       0.63851      .   S
    Zr18   O74       0.63851      .   S
    Zr24   O75       0.98567      .   S
    Zr6    O75       0.98567      .   S
    Zr43   O76       0.63850      .   S
    Zr12   O76       0.63850      .   S
    Zr43   O77       0.98561      .   S
    Zr6    O77       0.98561      .   S
    Zr17   O78       0.63849      .   S
    Zr23   O78       0.63849      .   S
    Zr18   O79       0.63856      .   S
    Zr26   O79       0.63856      .   S
    Zr12   O80       0.63877      .   S
    Zr42   O80       0.63877      .   S
    Zr6    O81       0.98333      .   S
    Zr33   O81       0.98333      .   S
    Zr23   O82       0.98563      .   S
    Zr5    O82       0.98563      .   S
    Zr26   O83       0.98571      .   S
    Zr7    O83       0.98571      .   S
    Zr42   O84       0.98716      .   S
    Zr1    O84       0.98716      .   S
    Zr33   O85       0.98332      .   S
    Zr7    O85       0.98332      .   S
    Zr5    O86       0.98557      .   S
    Zr28   O86       0.98557      .   S
    Zr5    O87       0.98581      .   S
    Zr41   O87       0.98581      .   S
    Zr7    O88       0.98555      .   S
    Zr25   O88       0.98555      .   S
    Zr7    O89       0.98564      .   S
    Zr45   O89       0.98564      .   S
    Zr1    O90       0.98723      .   S
    Zr44   O90       0.98723      .   S
    Zr1    O91       0.98734      .   S
    Zr40   O91       0.98734      .   S
    Zr28   O92       0.63853      .   S
    Zr19   O92       0.63853      .   S
    Zr25   O93       0.63852      .   S
    Zr19   O93       0.63852      .   S
    Zr41   O94       0.63846      .   S
    Zr11   O94       0.63846      .   S
    Zr45   O95       0.63850      .   S
    Zr13   O95       0.63850      .   S
    Zr44   O96       0.63874      .   S
    Zr13   O96       0.63874      .   S
    Zr40   O97       0.63874      .   S
    Zr11   O97       0.63874      .   S
    Zr32   O98       0.98498      .   S
    Zr0    O98       0.98498      .   S
    Zr32   O99       0.98335      .   S
    Zr4    O99       0.98335      .   S
    Zr33   O100      0.98498      .   S
    Zr1    O100      0.98498      .   S
    Zr33   O101      0.98335      .   S
    Zr5    O101      0.98335      .   S
    N102   O103      1.07408  1_545   S
    Zr11   O103      1.82188      .   S
    N102   O104      1.07397  1_556   S
    Zr10   O104      1.82209      .   S
    N105   O106      1.07316      .   S
    Zr15   O106      1.82073      .   S
    N105   O107      1.07316  1_545   S
    Zr17   O107      1.82073      .   S
    N108   O109      1.07391  1_554   S
    Zr13   O109      1.82198      .   S
    N108   O110      1.07394  1_655   S
    Zr8    O110      1.82199      .   S
    N111   O112      1.07316  1_655   S
    Zr14   O112      1.82079      .   S
    N111   O113      1.07321      .   S
    Zr18   O113      1.82084      .   S
    N114   O115      1.07389  1_545   S
    Zr12   O115      1.82191      .   S
    N114   O116      1.07387  1_655   S
    Zr9    O116      1.82189      .   S
    N117   O118      1.07309  1_554   S
    Zr19   O118      1.82063      .   S
    N117   O119      1.07309      .   S
    Zr16   O119      1.82062      .   S
