# CIF file generated by openbabel 2.4.90, see http://openbabel.sf.net
data_I
_chemical_name_common ''
_cell_length_a 18.394
_cell_length_b 18.394
_cell_length_c 18.394
_cell_angle_alpha 60.411
_cell_angle_beta 60.407
_cell_angle_gamma 60.411
_space_group_name_H-M_alt 'P 1'
_space_group_name_Hall 'P 1'
loop_
    _symmetry_equiv_pos_as_xyz
    x,y,z
loop_
    _atom_site_label
    _atom_site_type_symbol
    _atom_site_fract_x
    _atom_site_fract_y
    _atom_site_fract_z
    _atom_site_occupancy
    C0      C    0.20602   0.20609   0.20607   1.000
    C1      C    0.79397   0.79393   0.79393   1.000
    C2      C    0.20697   0.38020   0.20693   1.000
    C3      C    0.20697   0.20694   0.38020   1.000
    C4      C    0.38020   0.20698   0.20697   1.000
    C5      C    0.61979   0.79304   0.79303   1.000
    C6      C    0.79302   0.79308   0.61980   1.000
    C7      C    0.79302   0.61982   0.79307   1.000
    C8      C    0.04839   0.33589   0.56793   1.000
    C9      C    0.56792   0.04839   0.33587   1.000
    C10     C    0.33586   0.56793   0.04839   1.000
    C11     C    0.66412   0.95164   0.43206   1.000
    C12     C    0.95159   0.43210   0.66413   1.000
    C13     C    0.43207   0.66413   0.95162   1.000
    C14     C    0.95161   0.66413   0.43207   1.000
    C15     C    0.43207   0.95163   0.66413   1.000
    C16     C    0.66413   0.43209   0.95161   1.000
    C17     C    0.33586   0.04838   0.56794   1.000
    C18     C    0.04840   0.56792   0.33587   1.000
    C19     C    0.56792   0.33589   0.04838   1.000
    C20     C    0.04909   0.56742   0.04908   1.000
    C21     C    0.04708   0.33593   0.04707   1.000
    C22     C    0.04909   0.04908   0.56742   1.000
    C23     C    0.04709   0.04709   0.33591   1.000
    C24     C    0.56741   0.04908   0.04908   1.000
    C25     C    0.33591   0.04709   0.04709   1.000
    C26     C    0.43258   0.95093   0.95093   1.000
    C27     C    0.66408   0.95293   0.95292   1.000
    C28     C    0.95090   0.95094   0.43258   1.000
    C29     C    0.95290   0.95293   0.66409   1.000
    C30     C    0.95090   0.43260   0.95092   1.000
    C31     C    0.95291   0.66409   0.95293   1.000
    C32     C    0.02680   0.40778   0.53896   1.000
    C33     C    0.53895   0.02681   0.40777   1.000
    C34     C    0.40776   0.53896   0.02680   1.000
    C35     C    0.59222   0.97321   0.46104   1.000
    C36     C    0.97317   0.46106   0.59223   1.000
    C37     C    0.46104   0.59224   0.97320   1.000
    C38     C    0.97318   0.59224   0.46100   1.000
    C39     C    0.46104   0.97320   0.59223   1.000
    C40     C    0.59223   0.46106   0.97319   1.000
    C41     C    0.40776   0.02680   0.53896   1.000
    C42     C    0.02681   0.53896   0.40777   1.000
    C43     C    0.53895   0.40778   0.02680   1.000
    C44     C    0.11098   0.38859   0.11096   1.000
    C45     C    0.05364   0.44609   0.05364   1.000
    C46     C    0.02720   0.53865   0.02720   1.000
    C47     C    0.02608   0.40781   0.02608   1.000
    C48     C    0.11098   0.11098   0.38858   1.000
    C49     C    0.05365   0.05364   0.44608   1.000
    C50     C    0.02720   0.02721   0.53864   1.000
    C51     C    0.02608   0.02609   0.40700   1.000
    C52     C    0.38856   0.11099   0.11099   1.000
    C53     C    0.44607   0.05366   0.05364   1.000
    C54     C    0.53863   0.02720   0.02720   1.000
    C55     C    0.40779   0.02608   0.02608   1.000
    C56     C    0.61143   0.88902   0.88902   1.000
    C57     C    0.55392   0.94637   0.94630   1.000
    C58     C    0.46136   0.97281   0.97281   1.000
    C59     C    0.59220   0.97393   0.97392   1.000
    C60     C    0.88900   0.88905   0.61142   1.000
    C61     C    0.94635   0.94637   0.55392   1.000
    C62     C    0.97279   0.97282   0.46136   1.000
    C63     C    0.97391   0.97393   0.59221   1.000
    C64     C    0.88901   0.61143   0.88904   1.000
    C65     C    0.94635   0.55393   0.94637   1.000
    C66     C    0.97279   0.46137   0.97280   1.000
    C67     C    0.97392   0.59221   0.97392   1.000
    C68     C    0.11159   0.38910   0.38910   1.000
    C69     C    0.05396   0.44640   0.44640   1.000
    C70     C    0.38910   0.11158   0.38911   1.000
    C71     C    0.44639   0.05396   0.44640   1.000
    C72     C    0.38910   0.38912   0.11157   1.000
    C73     C    0.44639   0.44641   0.05395   1.000
    C74     C    0.61089   0.88842   0.61089   1.000
    C75     C    0.55360   0.94609   0.55360   1.000
    C76     C    0.88837   0.61092   0.61090   1.000
    C77     C    0.94605   0.55361   0.55360   1.000
    C78     C    0.61089   0.61090   0.88841   1.000
    C79     C    0.55359   0.55361   0.94608   1.000
    C80     C    0.13386   0.42856   0.30543   1.000
    C81     C    0.30543   0.13379   0.42859   1.000
    C82     C    0.42857   0.30546   0.13388   1.000
    C83     C    0.57142   0.86612   0.69455   1.000
    C84     C    0.86615   0.69458   0.57144   1.000
    C85     C    0.69455   0.57144   0.86620   1.000
    C86     C    0.86613   0.57146   0.69457   1.000
    C87     C    0.69456   0.86624   0.57140   1.000
    C88     C    0.57142   0.69456   0.86613   1.000
    C89     C    0.42856   0.13391   0.30545   1.000
    C90     C    0.13384   0.30544   0.42856   1.000
    C91     C    0.30543   0.42858   0.13300   1.000
    C92     C    0.24991   0.24992   0.24992   1.000
    C93     C    0.75008   0.75010   0.75008   1.000
    C94     C    0.13266   0.30489   0.13273   1.000
    C95     C    0.13348   0.42807   0.13340   1.000
    C96     C    0.13266   0.13275   0.30488   1.000
    C97     C    0.13347   0.13342   0.42807   1.000
    C98     C    0.30486   0.13272   0.13271   1.000
    C99     C    0.42805   0.13347   0.13344   1.000
    C100    C    0.69513   0.86730   0.86728   1.000
    C101    C    0.57194   0.86655   0.86656   1.000
    C102    C    0.86733   0.86727   0.69512   1.000
    C103    C    0.86652   0.86660   0.57193   1.000
    C104    C    0.86732   0.69512   0.86727   1.000
    C105    C    0.86651   0.57194   0.86660   1.000
    O106    O    0.03658   0.37187   0.03658   1.000
    O107    O    0.03986   0.42695   0.03986   1.000
    O108    O    0.99943   0.43459   0.99944   1.000
    O109    O    0.37185   0.03659   0.03658   1.000
    O110    O    0.42693   0.03987   0.03986   1.000
    O111    O    0.43457   0.99945   0.99945   1.000
    O112    O    0.55343   0.37184   0.03759   1.000
    O113    O    0.49267   0.42710   0.04038   1.000
    O114    O    0.56559   0.43442   1.00000   1.000
    O115    O    0.37181   0.55344   0.03760   1.000
    O116    O    0.42708   0.49269   0.04038   1.000
    O117    O    0.43440   0.56560   0.00000   1.000
    O118    O    0.55302   0.03814   0.03814   1.000
    O119    O    0.49235   0.04043   0.04042   1.000
    O120    O    0.56542   0.00056   0.00056   1.000
    O121    O    0.03815   0.55303   0.03814   1.000
    O122    O    0.04042   0.49237   0.04042   1.000
    O123    O    0.00056   0.56543   0.00056   1.000
    O124    O    0.08231   0.41734   0.08230   1.000
    O125    O    0.41731   0.08232   0.08232   1.000
    O126    O    0.41775   0.41776   0.08276   1.000
    O127    O    0.12182   0.34674   0.12185   1.000
    O128    O    0.12223   0.40833   0.12218   1.000
    O129    O    0.34671   0.12186   0.12185   1.000
    O130    O    0.40830   0.12223   0.12222   1.000
    O131    O    0.34727   0.40885   0.12229   1.000
    O132    O    0.40883   0.34729   0.12273   1.000
    O133    O    0.25544   0.16941   0.16939   1.000
    O134    O    0.16934   0.25549   0.16940   1.000
    O135    O    0.25620   0.40439   0.16997   1.000
    O136    O    0.17022   0.40414   0.17017   1.000
    O137    O    0.40412   0.17023   0.17021   1.000
    O138    O    0.40438   0.25622   0.17043   1.000
    O139    O    0.16934   0.16942   0.25548   1.000
    O140    O    0.22844   0.31506   0.22843   1.000
    O141    O    0.17042   0.40438   0.25618   1.000
    O142    O    0.40438   0.17044   0.25621   1.000
    O143    O    0.22844   0.22843   0.31506   1.000
    O144    O    0.12182   0.12186   0.34673   1.000
    O145    O    0.12273   0.40883   0.34726   1.000
    O146    O    0.40883   0.12274   0.34728   1.000
    O147    O    0.03761   0.55344   0.37182   1.000
    O148    O    0.55344   0.03760   0.37182   1.000
    O149    O    0.03658   0.03659   0.37145   1.000
    O150    O    0.17022   0.17018   0.40414   1.000
    O151    O    0.17041   0.25619   0.40438   1.000
    O152    O    0.25620   0.17037   0.40440   1.000
    O153    O    0.12222   0.12220   0.40833   1.000
    O154    O    0.08231   0.08231   0.41733   1.000
    O155    O    0.12272   0.34727   0.40883   1.000
    O156    O    0.08278   0.41775   0.41775   1.000
    O157    O    0.34726   0.12269   0.40885   1.000
    O158    O    0.41774   0.08277   0.41776   1.000
    O159    O    0.03986   0.03987   0.42654   1.000
    O160    O    0.99943   0.99946   0.43418   1.000
    O161    O    0.49267   0.04038   0.42709   1.000
    O162    O    0.56559   0.00001   0.43441   1.000
    O163    O    0.04039   0.49268   0.42709   1.000
    O164    O    0.99999   0.56560   0.43439   1.000
    O165    O    0.62817   0.96243   0.44655   1.000
    O166    O    0.96239   0.62818   0.44654   1.000
    O167    O    0.96184   0.96188   0.44697   1.000
    O168    O    0.04042   0.04042   0.49236   1.000
    O169    O    0.04038   0.42709   0.49268   1.000
    O170    O    0.42708   0.04038   0.49268   1.000
    O171    O    0.95962   0.57293   0.50730   1.000
    O172    O    0.57291   0.95965   0.50732   1.000
    O173    O    0.95957   0.95959   0.50764   1.000
    O174    O    0.03814   0.03814   0.55303   1.000
    O175    O    0.00055   0.00057   0.56543   1.000
    O176    O    0.37181   0.03759   0.55345   1.000
    O177    O    0.43440   0.00000   0.56560   1.000
    O178    O    0.03760   0.37184   0.55345   1.000
    O179    O    0.99999   0.43442   0.56560   1.000
    O180    O    0.50732   0.95965   0.57292   1.000
    O181    O    0.58224   0.91725   0.58225   1.000
    O182    O    0.95961   0.50734   0.57292   1.000
    O183    O    0.91721   0.58227   0.58225   1.000
    O184    O    0.96013   0.96015   0.57307   1.000
    O185    O    0.91768   0.91771   0.58267   1.000
    O186    O    0.65273   0.87733   0.59115   1.000
    O187    O    0.74379   0.82966   0.59560   1.000
    O188    O    0.87726   0.65275   0.59117   1.000
    O189    O    0.82959   0.74383   0.59562   1.000
    O190    O    0.87776   0.87782   0.59168   1.000
    O191    O    0.82977   0.82984   0.59587   1.000
    O192    O    0.96340   0.96343   0.62815   1.000
    O193    O    0.44655   0.96242   0.62818   1.000
    O194    O    0.96238   0.44658   0.62818   1.000
    O195    O    0.59116   0.87727   0.65272   1.000
    O196    O    0.87725   0.59119   0.65274   1.000
    O197    O    0.87817   0.87816   0.65327   1.000
    O198    O    0.77155   0.77159   0.68494   1.000
    O199    O    0.59561   0.82958   0.74379   1.000
    O200    O    0.82958   0.59564   0.74382   1.000
    O201    O    0.83065   0.83060   0.74453   1.000
    O202    O    0.77155   0.68496   0.77158   1.000
    O203    O    0.59561   0.74380   0.82958   1.000
    O204    O    0.59587   0.82980   0.82980   1.000
    O205    O    0.74379   0.59563   0.82964   1.000
    O206    O    0.82977   0.59588   0.82984   1.000
    O207    O    0.83065   0.74453   0.83060   1.000
    O208    O    0.74455   0.83062   0.83061   1.000
    O209    O    0.59116   0.65273   0.87727   1.000
    O210    O    0.65272   0.59117   0.87731   1.000
    O211    O    0.59169   0.87779   0.87779   1.000
    O212    O    0.87776   0.59169   0.87782   1.000
    O213    O    0.87817   0.65328   0.87816   1.000
    O214    O    0.65328   0.87816   0.87815   1.000
    O215    O    0.58224   0.58226   0.91725   1.000
    O216    O    0.58267   0.91770   0.91766   1.000
    O217    O    0.91768   0.58268   0.91771   1.000
    O218    O    0.57291   0.50733   0.95964   1.000
    O219    O    0.50732   0.57292   0.95964   1.000
    O220    O    0.50764   0.95959   0.95956   1.000
    O221    O    0.57306   0.96015   0.96011   1.000
    O222    O    0.95957   0.50765   0.95959   1.000
    O223    O    0.96013   0.57307   0.96015   1.000
    O224    O    0.96184   0.44698   0.96186   1.000
    O225    O    0.44697   0.96187   0.96187   1.000
    O226    O    0.62818   0.44657   0.96240   1.000
    O227    O    0.44655   0.62818   0.96241   1.000
    O228    O    0.62814   0.96343   0.96342   1.000
    O229    O    0.96341   0.62815   0.96343   1.000
    O230    O    0.22797   0.22801   0.22800   1.000
    O231    O    0.31505   0.22845   0.22845   1.000
    O232    O    0.77202   0.77201   0.77201   1.000
    O233    O    0.68494   0.77157   0.77156   1.000
loop_
    _geom_bond_atom_site_label_1
    _geom_bond_atom_site_label_2
    _geom_bond_distance
    _geom_bond_site_symmetry_2
    _ccdc_geom_bond_type
    C47    O106      0.54432      .   S
    C21    O106      0.54432      .   S
    C47    O107      0.70158      .   S
    C45    O107      0.70158      .   S
    C47    O108      0.69524  1_454   S
    C66    O108      0.69524      .   S
    C55    O109      0.54431      .   S
    C25    O109      0.54431      .   S
    C55    O110      0.70164      .   S
    C53    O110      0.70164      .   S
    C55    O111      0.69503  1_544   S
    C58    O111      0.69503      .   S
    C43    O112      0.54428      .   S
    C19    O112      0.54428      .   S
    C43    O113      0.70156      .   S
    C73    O113      0.70156      .   S
    C43    O114      0.69510  1_554   S
    C40    O114      0.69510      .   S
    C34    O115      0.54429      .   S
    C10    O115      0.54429      .   S
    C34    O116      0.70156      .   S
    C73    O116      0.70156      .   S
    C34    O117      0.69509      .   S
    C37    O117      0.69509  1_556   S
    C54    O118      0.54431      .   S
    C24    O118      0.54431      .   S
    C54    O119      0.70173      .   S
    C53    O119      0.70173      .   S
    C54    O120      0.69510      .   S
    C59    O120      0.69510  1_566   S
    C46    O121      0.54432      .   S
    C20    O121      0.54432      .   S
    C46    O122      0.70172      .   S
    C45    O122      0.70172      .   S
    C46    O123      0.69523      .   S
    C67    O123      0.69523  1_656   S
    C45    O124      0.74805      .   S
    C44    O124      0.74805      .   S
    C53    O125      0.74812      .   S
    C52    O125      0.74812      .   S
    C73    O126      0.74753      .   S
    C72    O126      0.74753      .   S
    C44    O127      0.63875      .   S
    C94    O127      0.63875      .   S
    C44    O128      0.63847      .   S
    C95    O128      0.63847      .   S
    C52    O129      0.63875      .   S
    C98    O129      0.63875      .   S
    C52    O130      0.63850      .   S
    C99    O130      0.63850      .   S
    C72    O131      0.63853      .   S
    C91    O131      0.63853      .   S
    C72    O132      0.63853      .   S
    C82    O132      0.63853      .   S
    C98    O133      0.98737      .   S
    C0     O133      0.98737      .   S
    C94    O134      0.98724      .   S
    C0     O134      0.98724      .   S
    C91    O135      0.98562      .   S
    C2     O135      0.98562      .   S
    C95    O136      0.98565      .   S
    C2     O136      0.98565      .   S
    C99    O137      0.98578      .   S
    C4     O137      0.98578      .   S
    C82    O138      0.98557      .   S
    C4     O138      0.98557      .   S
    C0     O139      0.98717      .   S
    C96    O139      0.98717      .   S
    C2     O140      0.98332      .   S
    C92    O140      0.98332      .   S
    C2     O141      0.98570      .   S
    C80    O141      0.98570      .   S
    C4     O142      0.98563      .   S
    C89    O142      0.98563      .   S
    C92    O143      0.98333      .   S
    C3     O143      0.98333      .   S
    C96    O144      0.63877      .   S
    C48    O144      0.63877      .   S
    C80    O145      0.63856      .   S
    C68    O145      0.63856      .   S
    C89    O146      0.63849      .   S
    C70    O146      0.63849      .   S
    C18    O147      0.54429      .   S
    C42    O147      0.54429      .   S
    C9     O148      0.54429      .   S
    C33    O148      0.54429      .   S
    C23    O149      0.53804      .   S
    C51    O149      0.53804      .   S
    C3     O150      0.98561      .   S
    C97    O150      0.98561      .   S
    C3     O151      0.98567      .   S
    C90    O151      0.98567      .   S
    C3     O152      0.98562      .   S
    C81    O152      0.98562      .   S
    C48    O153      0.63849      .   S
    C97    O153      0.63849      .   S
    C48    O154      0.74802      .   S
    C49    O154      0.74802      .   S
    C68    O155      0.63851      .   S
    C90    O155      0.63851      .   S
    C68    O156      0.74763      .   S
    C69    O156      0.74763      .   S
    C70    O157      0.63854      .   S
    C81    O157      0.63854      .   S
    C70    O158      0.74757      .   S
    C71    O158      0.74757      .   S
    C51    O159      0.70785      .   S
    C49    O159      0.70785      .   S
    C51    O160      0.69532  1_445   S
    C62    O160      0.69532      .   S
    C33    O161      0.70156      .   S
    C71    O161      0.70156      .   S
    C33    O162      0.69509      .   S
    C35    O162      0.69509  1_565   S
    C42    O163      0.70157      .   S
    C69    O163      0.70157      .   S
    C42    O164      0.69483  1_455   S
    C38    O164      0.69483      .   S
    C11    O165      0.54429      .   S
    C35    O165      0.54429      .   S
    C14    O166      0.54426      .   S
    C38    O166      0.54426      .   S
    C28    O167      0.54430      .   S
    C62    O167      0.54430      .   S
    C49    O168      0.70174      .   S
    C50    O168      0.70174      .   S
    C69    O169      0.70159      .   S
    C32    O169      0.70159      .   S
    C71    O170      0.70159      .   S
    C41    O170      0.70159      .   S
    C38    O171      0.70187      .   S
    C77    O171      0.70187      .   S
    C35    O172      0.70158      .   S
    C75    O172      0.70158      .   S
    C62    O173      0.70174      .   S
    C61    O173      0.70174      .   S
    C50    O174      0.54431      .   S
    C22    O174      0.54431      .   S
    C50    O175      0.69518      .   S
    C63    O175      0.69518  1_665   S
    C41    O176      0.54430      .   S
    C17    O176      0.54430      .   S
    C41    O177      0.69509      .   S
    C39    O177      0.69509  1_565   S
    C32    O178      0.54428      .   S
    C8     O178      0.54428      .   S
    C32    O179      0.69509  1_455   S
    C36    O179      0.69509      .   S
    C75    O180      0.70157      .   S
    C39    O180      0.70157      .   S
    C75    O181      0.74757      .   S
    C74    O181      0.74757      .   S
    C77    O182      0.70156      .   S
    C36    O182      0.70156      .   S
    C77    O183      0.74763      .   S
    C76    O183      0.74763      .   S
    C61    O184      0.70160      .   S
    C63    O184      0.70160      .   S
    C61    O185      0.74802      .   S
    C60    O185      0.74802      .   S
    C87    O186      0.63855      .   S
    C74    O186      0.63855      .   S
    C87    O187      0.98568      .   S
    C6     O187      0.98568      .   S
    C84    O188      0.63851      .   S
    C76    O188      0.63851      .   S
    C84    O189      0.98567      .   S
    C6     O189      0.98567      .   S
    C103   O190      0.63850      .   S
    C60    O190      0.63850      .   S
    C103   O191      0.98561      .   S
    C6     O191      0.98561      .   S
    C63    O192      0.54430      .   S
    C29    O192      0.54430      .   S
    C39    O193      0.54429      .   S
    C15    O193      0.54429      .   S
    C36    O194      0.54429      .   S
    C12    O194      0.54429      .   S
    C74    O195      0.63849      .   S
    C83    O195      0.63849      .   S
    C76    O196      0.63856      .   S
    C86    O196      0.63856      .   S
    C60    O197      0.63877      .   S
    C102   O197      0.63877      .   S
    C6     O198      0.98333      .   S
    C93    O198      0.98333      .   S
    C83    O199      0.98563      .   S
    C5     O199      0.98563      .   S
    C86    O200      0.98571      .   S
    C7     O200      0.98571      .   S
    C102   O201      0.98716      .   S
    C1     O201      0.98716      .   S
    C93    O202      0.98332      .   S
    C7     O202      0.98332      .   S
    C5     O203      0.98557      .   S
    C88    O203      0.98557      .   S
    C5     O204      0.98581      .   S
    C101   O204      0.98581      .   S
    C7     O205      0.98555      .   S
    C85    O205      0.98555      .   S
    C7     O206      0.98564      .   S
    C105   O206      0.98564      .   S
    C1     O207      0.98723      .   S
    C104   O207      0.98723      .   S
    C1     O208      0.98734      .   S
    C100   O208      0.98734      .   S
    C88    O209      0.63853      .   S
    C78    O209      0.63853      .   S
    C85    O210      0.63852      .   S
    C78    O210      0.63852      .   S
    C101   O211      0.63846      .   S
    C56    O211      0.63846      .   S
    C105   O212      0.63850      .   S
    C64    O212      0.63850      .   S
    C104   O213      0.63874      .   S
    C64    O213      0.63874      .   S
    C100   O214      0.63874      .   S
    C56    O214      0.63874      .   S
    C78    O215      0.74753      .   S
    C79    O215      0.74753      .   S
    C56    O216      0.74780      .   S
    C57    O216      0.74780      .   S
    C64    O217      0.74806      .   S
    C65    O217      0.74806      .   S
    C79    O218      0.70157      .   S
    C40    O218      0.70157      .   S
    C79    O219      0.70157      .   S
    C37    O219      0.70157      .   S
    C57    O220      0.70168      .   S
    C58    O220      0.70168      .   S
    C57    O221      0.70196      .   S
    C59    O221      0.70196      .   S
    C65    O222      0.70173      .   S
    C66    O222      0.70173      .   S
    C65    O223      0.70156      .   S
    C67    O223      0.70156      .   S
    C30    O224      0.54433      .   S
    C66    O224      0.54433      .   S
    C26    O225      0.54428      .   S
    C58    O225      0.54428      .   S
    C16    O226      0.54429      .   S
    C40    O226      0.54429      .   S
    C13    O227      0.54428      .   S
    C37    O227      0.54428      .   S
    C27    O228      0.54432      .   S
    C59    O228      0.54432      .   S
    C31    O229      0.54432      .   S
    C67    O229      0.54432      .   S
    C92    O230      0.98498      .   S
    C0     O230      0.98498      .   S
    C92    O231      0.98335      .   S
    C4     O231      0.98335      .   S
    C93    O232      0.98498      .   S
    C1     O232      0.98498      .   S
    C93    O233      0.98335      .   S
    C5     O233      0.98335      .   S
