# CIF file generated by openbabel 2.4.90, see http://openbabel.sf.net
data_I
_chemical_name_common 'VESTA_phase_1'
_cell_length_a 23.285
_cell_length_b 13.976
_cell_length_c 15.782
_cell_angle_alpha 96.063
_cell_angle_beta 89.996
_cell_angle_gamma 89.977
_space_group_name_H-M_alt 'P 1'
_space_group_name_Hall 'P 1'
loop_
    _symmetry_equiv_pos_as_xyz
    x,y,z
loop_
    _atom_site_label
    _atom_site_type_symbol
    _atom_site_fract_x
    _atom_site_fract_y
    _atom_site_fract_z
    _atom_site_occupancy
    Zn0     Zn   0.04742   0.19675   0.98514   1.000
    Zn1     Zn   0.54742   0.19675   0.98514   1.000
    Zn2     Zn   0.04785   0.40011   0.00340   1.000
    Zn3     Zn   0.54784   0.40011   0.00340   1.000
    Zn4     Zn   0.29739   0.80324   0.01482   1.000
    Zn5     Zn   0.79738   0.80324   0.01482   1.000
    Zn6     Zn   0.29786   0.59988   0.99656   1.000
    Zn7     Zn   0.79785   0.59988   0.99656   1.000
    H8      H    0.20287   0.16718   0.14822   1.000
    H9      H    0.70286   0.16718   0.14822   1.000
    H10     H    0.26799   0.16904   0.27361   1.000
    H11     H    0.76798   0.16904   0.27361   1.000
    H12     H    0.18593   0.42744   0.38651   1.000
    H13     H    0.68592   0.42744   0.38651   1.000
    H14     H    0.12494   0.43049   0.25632   1.000
    H15     H    0.62493   0.43049   0.25632   1.000
    H16     H    0.40346   0.29839   0.49260   1.000
    H17     H    0.90346   0.29839   0.49260   1.000
    H18     H    0.19159   0.29489   0.49589   1.000
    H19     H    0.69158   0.29489   0.49589   1.000
    H20     H    0.40989   0.42268   0.62747   1.000
    H21     H    0.90988   0.42268   0.62747   1.000
    H22     H    0.47056   0.42359   0.75784   1.000
    H23     H    0.97055   0.42359   0.75784   1.000
    H24     H    0.39049   0.16162   0.81570   1.000
    H25     H    0.89048   0.16161   0.81570   1.000
    H26     H    0.32584   0.16537   0.69028   1.000
    H27     H    0.82583   0.16537   0.69028   1.000
    H28     H    0.41023   0.17476   0.35835   1.000
    H29     H    0.91023   0.17476   0.35835   1.000
    H30     H    0.47079   0.17908   0.22844   1.000
    H31     H    0.97078   0.17908   0.22844   1.000
    H32     H    0.38420   0.43614   0.17123   1.000
    H33     H    0.88420   0.43614   0.17123   1.000
    H34     H    0.32139   0.42905   0.29740   1.000
    H35     H    0.82139   0.42904   0.29740   1.000
    H36     H    0.19109   0.15984   0.60846   1.000
    H37     H    0.69108   0.15984   0.60846   1.000
    H38     H    0.13099   0.15889   0.73943   1.000
    H39     H    0.63098   0.15889   0.73943   1.000
    H40     H    0.20472   0.42944   0.83953   1.000
    H41     H    0.70471   0.42944   0.83953   1.000
    H42     H    0.26760   0.42719   0.71298   1.000
    H43     H    0.76759   0.42719   0.71290   1.000
    H44     H    0.13760   0.55717   0.00000   1.000
    H45     H    0.63760   0.55717   0.00000   1.000
    H46     H    0.14051   0.73402   0.01287   1.000
    H47     H    0.64050   0.73402   0.01287   1.000
    H48     H    0.45528   0.72824   0.99034   1.000
    H49     H    0.95528   0.72824   0.99034   1.000
    H50     H    0.45978   0.55175   0.99514   1.000
    H51     H    0.95977   0.55175   0.99514   1.000
    H52     H    0.12275   0.85209   0.91352   1.000
    H53     H    0.62274   0.85209   0.91352   1.000
    H54     H    0.11782   0.03075   0.90750   1.000
    H55     H    0.61782   0.03075   0.90753   1.000
    H56     H    0.47390   0.05614   0.06132   1.000
    H57     H    0.97390   0.05614   0.06132   1.000
    H58     H    0.47069   0.87804   0.07173   1.000
    H59     H    0.97068   0.87804   0.07173   1.000
    H60     H    0.45281   0.83276   0.85176   1.000
    H61     H    0.95280   0.83276   0.85176   1.000
    H62     H    0.01794   0.83089   0.72635   1.000
    H63     H    0.51793   0.83089   0.72635   1.000
    H64     H    0.43596   0.57255   0.61343   1.000
    H65     H    0.93595   0.57255   0.61343   1.000
    H66     H    0.37496   0.56951   0.74363   1.000
    H67     H    0.87495   0.56951   0.74363   1.000
    H68     H    0.15346   0.70163   0.50727   1.000
    H69     H    0.65345   0.70163   0.50727   1.000
    H70     H    0.44158   0.70505   0.50407   1.000
    H71     H    0.94157   0.70505   0.50407   1.000
    H72     H    0.15994   0.57731   0.37247   1.000
    H73     H    0.65993   0.57731   0.37247   1.000
    H74     H    0.22061   0.57642   0.24208   1.000
    H75     H    0.72060   0.57642   0.24208   1.000
    H76     H    0.14045   0.83844   0.18430   1.000
    H77     H    0.64044   0.83844   0.18430   1.000
    H78     H    0.07579   0.83467   0.30972   1.000
    H79     H    0.57578   0.83467   0.30972   1.000
    H80     H    0.16018   0.82522   0.64158   1.000
    H81     H    0.66017   0.82522   0.64150   1.000
    H82     H    0.22073   0.82092   0.77148   1.000
    H83     H    0.72072   0.82091   0.77148   1.000
    H84     H    0.13424   0.56391   0.82876   1.000
    H85     H    0.63423   0.56391   0.82876   1.000
    H86     H    0.07144   0.57098   0.70260   1.000
    H87     H    0.57143   0.57097   0.70260   1.000
    H88     H    0.44105   0.84017   0.39146   1.000
    H89     H    0.94105   0.84017   0.39146   1.000
    H90     H    0.38096   0.84111   0.26050   1.000
    H91     H    0.88095   0.84111   0.26050   1.000
    H92     H    0.45475   0.57048   0.16046   1.000
    H93     H    0.95475   0.57048   0.16046   1.000
    H94     H    0.01763   0.57273   0.28700   1.000
    H95     H    0.51762   0.57273   0.28700   1.000
    H96     H    0.38763   0.44269   0.98206   1.000
    H97     H    0.88762   0.44269   0.98206   1.000
    H98     H    0.39053   0.26584   0.98711   1.000
    H99     H    0.89052   0.26584   0.98711   1.000
    H100    H    0.20529   0.27190   0.00959   1.000
    H101    H    0.70529   0.27190   0.00959   1.000
    H102    H    0.20982   0.44837   0.00000   1.000
    H103    H    0.70981   0.44837   0.00000   1.000
    H104    H    0.37273   0.14778   0.08644   1.000
    H105    H    0.87272   0.14778   0.08644   1.000
    H106    H    0.36777   0.96913   0.09244   1.000
    H107    H    0.86777   0.96913   0.09240   1.000
    H108    H    0.22389   0.94397   0.93864   1.000
    H109    H    0.72388   0.94397   0.93864   1.000
    H110    H    0.22071   0.12207   0.92820   1.000
    H111    H    0.72070   0.12207   0.92822   1.000
    C112    C    0.12186   0.29939   0.11810   1.000
    C113    C    0.62185   0.29939   0.11810   1.000
    C114    C    0.16017   0.29912   0.19431   1.000
    C115    C    0.66017   0.29912   0.19431   1.000
    C116    C    0.20035   0.22523   0.19988   1.000
    C117    C    0.70034   0.22523   0.19988   1.000
    C118    C    0.23632   0.22601   0.27038   1.000
    C119    C    0.73631   0.22601   0.27038   1.000
    C120    C    0.23124   0.29856   0.33874   1.000
    C121    C    0.73123   0.29856   0.33874   1.000
    C122    C    0.19008   0.37116   0.33347   1.000
    C123    C    0.69007   0.37116   0.33347   1.000
    C124    C    0.15573   0.37274   0.26149   1.000
    C125    C    0.65573   0.37274   0.26149   1.000
    C126    C    0.26659   0.29807   0.41692   1.000
    C127    C    0.76658   0.29807   0.41692   1.000
    C128    C    0.32727   0.29872   0.41592   1.000
    C129    C    0.82726   0.29872   0.41592   1.000
    C130    C    0.35661   0.29757   0.49336   1.000
    C131    C    0.85660   0.29757   0.49336   1.000
    C132    C    0.32847   0.29552   0.57166   1.000
    C133    C    0.82847   0.29552   0.57166   1.000
    C134    C    0.26780   0.29420   0.57247   1.000
    C135    C    0.76780   0.29420   0.57247   1.000
    C136    C    0.23844   0.29564   0.49515   1.000
    C137    C    0.73843   0.29564   0.49515   1.000
    C138    C    0.36366   0.29430   0.64992   1.000
    C139    C    0.86366   0.29430   0.64992   1.000
    C140    C    0.40527   0.36597   0.66935   1.000
    C141    C    0.90526   0.36597   0.66935   1.000
    C142    C    0.43945   0.36642   0.74164   1.000
    C143    C    0.93944   0.36642   0.74164   1.000
    C144    C    0.43440   0.29253   0.79468   1.000
    C145    C    0.93440   0.29253   0.79468   1.000
    C146    C    0.39366   0.21966   0.77495   1.000
    C147    C    0.89365   0.21966   0.77495   1.000
    C148    C    0.35793   0.22155   0.70442   1.000
    C149    C    0.85792   0.22155   0.70442   1.000
    C150    C    0.36148   0.30138   0.33684   1.000
    C151    C    0.86147   0.30138   0.33684   1.000
    C152    C    0.40416   0.23153   0.31677   1.000
    C153    C    0.90415   0.23153   0.31677   1.000
    C154    C    0.43794   0.23356   0.24434   1.000
    C155    C    0.93793   0.23356   0.24434   1.000
    C156    C    0.43111   0.30717   0.19122   1.000
    C157    C    0.93110   0.30717   0.19122   1.000
    C158    C    0.38917   0.37800   0.21150   1.000
    C159    C    0.88917   0.37800   0.21150   1.000
    C160    C    0.35416   0.37409   0.28264   1.000
    C161    C    0.85415   0.37409   0.28264   1.000
    C162    C    0.23367   0.29324   0.65184   1.000
    C163    C    0.73367   0.29324   0.65184   1.000
    C164    C    0.19458   0.21820   0.65987   1.000
    C165    C    0.69457   0.21820   0.65987   1.000
    C166    C    0.16104   0.21733   0.73270   1.000
    C167    C    0.66103   0.21733   0.73275   1.000
    C168    C    0.16440   0.29318   0.79827   1.000
    C169    C    0.66440   0.29318   0.79827   1.000
    C170    C    0.20269   0.36913   0.78996   1.000
    C171    C    0.70268   0.36913   0.78996   1.000
    C172    C    0.23768   0.36816   0.71833   1.000
    C173    C    0.73767   0.36816   0.71833   1.000
    C174    C    0.09821   0.59749   0.01134   1.000
    C175    C    0.59820   0.59749   0.01134   1.000
    C176    C    0.09959   0.69624   0.00769   1.000
    C177    C    0.59958   0.69624   0.00769   1.000
    C178    C    0.04792   0.74582   0.99969   1.000
    C179    C    0.54791   0.74582   0.99969   1.000
    C180    C    0.49662   0.69329   0.99640   1.000
    C181    C    0.99662   0.69329   0.99640   1.000
    C182    C    0.99887   0.59449   0.99872   1.000
    C183    C    0.49887   0.59448   0.99872   1.000
    C184    C    0.04726   0.85051   0.99435   1.000
    C185    C    0.54725   0.85051   0.99435   1.000
    C186    C    0.08925   0.89469   0.94785   1.000
    C187    C    0.58924   0.89469   0.94785   1.000
    C188    C    0.08685   0.99340   0.94402   1.000
    C189    C    0.58684   0.99340   0.94400   1.000
    C190    C    0.00537   0.00733   0.02914   1.000
    C191    C    0.50536   0.00733   0.02914   1.000
    C192    C    0.00422   0.90895   0.03486   1.000
    C193    C    0.50421   0.90895   0.03486   1.000
    C194    C    0.12607   0.29295   0.87445   1.000
    C195    C    0.62606   0.29295   0.87445   1.000
    C196    C    0.46925   0.30846   0.11492   1.000
    C197    C    0.96924   0.30846   0.11492   1.000
    C198    C    0.47277   0.29187   0.87070   1.000
    C199    C    0.97276   0.29186   0.87070   1.000
    C200    C    0.37184   0.70058   0.88179   1.000
    C201    C    0.87183   0.70058   0.88179   1.000
    C202    C    0.41016   0.70085   0.80565   1.000
    C203    C    0.91015   0.70085   0.80565   1.000
    C204    C    0.45031   0.77472   0.80008   1.000
    C205    C    0.95030   0.77472   0.80008   1.000
    C206    C    0.48628   0.77393   0.72959   1.000
    C207    C    0.98627   0.77393   0.72959   1.000
    C208    C    0.48122   0.70139   0.66122   1.000
    C209    C    0.98122   0.70139   0.66122   1.000
    C210    C    0.44008   0.62881   0.66648   1.000
    C211    C    0.94007   0.62881   0.66648   1.000
    C212    C    0.40574   0.62724   0.73840   1.000
    C213    C    0.90573   0.62724   0.73846   1.000
    C214    C    0.01659   0.70189   0.58300   1.000
    C215    C    0.51658   0.70189   0.58303   1.000
    C216    C    0.07727   0.70127   0.58404   1.000
    C217    C    0.57726   0.70127   0.58404   1.000
    C218    C    0.10661   0.70243   0.50659   1.000
    C219    C    0.60660   0.70243   0.50659   1.000
    C220    C    0.07847   0.70447   0.42830   1.000
    C221    C    0.57846   0.70447   0.42830   1.000
    C222    C    0.01780   0.70577   0.42748   1.000
    C223    C    0.51779   0.70577   0.42748   1.000
    C224    C    0.48843   0.70431   0.50481   1.000
    C225    C    0.98842   0.70431   0.50481   1.000
    C226    C    0.11366   0.70571   0.35004   1.000
    C227    C    0.61366   0.70571   0.35004   1.000
    C228    C    0.15529   0.63403   0.33059   1.000
    C229    C    0.65529   0.63403   0.33059   1.000
    C230    C    0.18948   0.63360   0.25830   1.000
    C231    C    0.68947   0.63360   0.25830   1.000
    C232    C    0.18440   0.70751   0.20520   1.000
    C233    C    0.68440   0.70751   0.20528   1.000
    C234    C    0.14363   0.78038   0.22503   1.000
    C235    C    0.64363   0.78038   0.22503   1.000
    C236    C    0.10790   0.77848   0.29556   1.000
    C237    C    0.60789   0.77848   0.29556   1.000
    C238    C    0.11147   0.69862   0.66311   1.000
    C239    C    0.61146   0.69862   0.66311   1.000
    C240    C    0.15413   0.76846   0.68310   1.000
    C241    C    0.65412   0.76846   0.68310   1.000
    C242    C    0.18790   0.76645   0.75560   1.000
    C243    C    0.68790   0.76644   0.75560   1.000
    C244    C    0.18110   0.69285   0.80874   1.000
    C245    C    0.68109   0.69285   0.80874   1.000
    C246    C    0.13919   0.62203   0.78848   1.000
    C247    C    0.63919   0.62203   0.78848   1.000
    C248    C    0.10418   0.62593   0.71734   1.000
    C249    C    0.60418   0.62593   0.71734   1.000
    C250    C    0.48367   0.70672   0.34811   1.000
    C251    C    0.98366   0.70672   0.34811   1.000
    C252    C    0.44456   0.78178   0.34007   1.000
    C253    C    0.94455   0.78178   0.34007   1.000
    C254    C    0.41102   0.78265   0.26719   1.000
    C255    C    0.91101   0.78265   0.26719   1.000
    C256    C    0.41440   0.70678   0.20169   1.000
    C257    C    0.91439   0.70678   0.20169   1.000
    C258    C    0.45270   0.63080   0.21001   1.000
    C259    C    0.95269   0.63080   0.21001   1.000
    C260    C    0.48769   0.63178   0.28164   1.000
    C261    C    0.98768   0.63178   0.28164   1.000
    C262    C    0.34824   0.40243   0.98864   1.000
    C263    C    0.84823   0.40243   0.98864   1.000
    C264    C    0.34961   0.30368   0.99229   1.000
    C265    C    0.84960   0.30368   0.99229   1.000
    C266    C    0.29793   0.25418   0.00000   1.000
    C267    C    0.79792   0.25417   0.00000   1.000
    C268    C    0.24665   0.30678   0.00000   1.000
    C269    C    0.74664   0.30678   0.00000   1.000
    C270    C    0.24890   0.40558   0.00000   1.000
    C271    C    0.74889   0.40558   0.00000   1.000
    C272    C    0.29726   0.14948   0.00000   1.000
    C273    C    0.79726   0.14948   0.00000   1.000
    C274    C    0.33923   0.10523   0.05211   1.000
    C275    C    0.83922   0.10523   0.05211   1.000
    C276    C    0.33681   0.00000   0.05594   1.000
    C277    C    0.83680   0.00000   0.05594   1.000
    C278    C    0.25536   0.99273   0.97082   1.000
    C279    C    0.75535   0.99273   0.97082   1.000
    C280    C    0.25422   0.09111   0.96510   1.000
    C281    C    0.75421   0.09111   0.96510   1.000
    C282    C    0.37606   0.70702   0.12550   1.000
    C283    C    0.87605   0.70702   0.12552   1.000
    C284    C    0.21923   0.69156   0.88504   1.000
    C285    C    0.71922   0.69156   0.88504   1.000
    C286    C    0.22276   0.70816   0.12926   1.000
    C287    C    0.72276   0.70816   0.12926   1.000
    N288    N    0.04876   0.54693   0.00602   1.000
    N289    N    0.54876   0.54693   0.00602   1.000
    N290    N    0.04595   0.04932   0.98451   1.000
    N291    N    0.54594   0.04931   0.98450   1.000
    N292    N    0.29879   0.45306   0.99394   1.000
    N293    N    0.79879   0.45306   0.99394   1.000
    N294    N    0.29591   0.95068   0.01546   1.000
    N295    N    0.79590   0.95068   0.01546   1.000
    O296    O    0.09718   0.37874   0.10734   1.000
    O297    O    0.59717   0.37874   0.10734   1.000
    O298    O    0.11696   0.22091   0.06957   1.000
    O299    O    0.61695   0.22091   0.06957   1.000
    O300    O    0.11972   0.37142   0.92230   1.000
    O301    O    0.61971   0.37142   0.92230   1.000
    O302    O    0.10220   0.21265   0.88554   1.000
    O303    O    0.60219   0.21265   0.88554   1.000
    O304    O    0.49330   0.22844   0.08874   1.000
    O305    O    0.99329   0.22844   0.08874   1.000
    O306    O    0.47520   0.38699   0.08173   1.000
    O307    O    0.97519   0.38699   0.08173   1.000
    O308    O    0.49765   0.37099   0.89630   1.000
    O309    O    0.99765   0.37099   0.89630   1.000
    O310    O    0.47781   0.21325   0.90441   1.000
    O311    O    0.97780   0.21325   0.90441   1.000
    O312    O    0.34719   0.62124   0.89262   1.000
    O313    O    0.84718   0.62124   0.89262   1.000
    O314    O    0.36692   0.77906   0.93040   1.000
    O315    O    0.86691   0.77906   0.93040   1.000
    O316    O    0.36971   0.62855   0.07760   1.000
    O317    O    0.86971   0.62855   0.07760   1.000
    O318    O    0.35218   0.78735   0.11442   1.000
    O319    O    0.85217   0.78735   0.11442   1.000
    O320    O    0.24325   0.77157   0.91123   1.000
    O321    O    0.74324   0.77157   0.91123   1.000
    O322    O    0.22522   0.61302   0.91823   1.000
    O323    O    0.72521   0.61302   0.91823   1.000
    O324    O    0.24766   0.62901   0.10350   1.000
    O325    O    0.74766   0.62901   0.10356   1.000
    O326    O    0.22780   0.78678   0.09556   1.000
    O327    O    0.72779   0.78678   0.09556   1.000
loop_
    _geom_bond_atom_site_label_1
    _geom_bond_atom_site_label_2
    _geom_bond_distance
    _geom_bond_site_symmetry_2
    _ccdc_geom_bond_type
    C266   C272      1.46326      .   S
    C266   C268      1.40207      .   S
    C266   C264      1.39996  1_554   S
    H44    C174      1.08130      .   S
    H45    C175      1.08132      .   S
    C273   C267      1.46326      .   S
    C273   C275      1.45633      .   S
    C273   C281      1.37081  1_554   S
    C272   C274      1.45635      .   S
    C272   C280      1.37082  1_554   S
    C271   C269      1.38180      .   S
    C271   H103      1.08871      .   S
    C271   N293      1.34662  1_554   S
    C270   C268      1.38180      .   S
    C270   H102      1.08871      .   S
    C270   N292      1.34661  1_554   S
    C269   C267      1.40207      .   S
    C269   H101      1.09716      .   S
    C268   H100      1.09717      .   S
    C267   C265      1.39997  1_554   S
    Zn2    N288      2.04807      .   S
    Zn2    O307      2.11463  1_455   S
    Zn2    O296      2.05015      .   S
    Zn2    O309      2.06018  1_454   S
    Zn2    O300      2.11900  1_554   S
    Zn3    N289      2.04807      .   S
    Zn3    O306      2.11434      .   S
    Zn3    O297      2.05016      .   S
    Zn3    O308      2.05997  1_554   S
    Zn3    O301      2.11900  1_554   S
    N289   C175      1.34914      .   S
    N289   C183      1.34910  1_554   S
    N288   C174      1.34914      .   S
    N288   C182      1.34912  1_454   S
    C176   C174      1.38771      .   S
    C176   H46       1.08851      .   S
    C176   C178      1.40055  1_554   S
    C177   C175      1.38770      .   S
    C177   H47       1.08850      .   S
    C177   C179      1.40056  1_554   S
    Zn4    N294      2.05987      .   S
    Zn4    O326      2.08918      .   S
    Zn4    O318      2.05464      .   S
    Zn4    O320      2.07512  1_554   S
    Zn4    O314      2.10098  1_554   S
    Zn5    N295      2.05987      .   S
    Zn5    O327      2.08920      .   S
    Zn5    O319      2.05466      .   S
    Zn5    O321      2.07512  1_554   S
    Zn5    O315      2.10095  1_554   S
    N294   C276      1.30297  1_565   S
    N294   C278      1.34923  1_554   S
    N295   C277      1.30297  1_565   S
    N295   C279      1.34923  1_554   S
    C190   C192      1.38769  1_545   S
    C190   H57       1.08942  1_455   S
    C190   N290      1.34935  1_554   S
    C191   C193      1.38770  1_545   S
    C191   H56       1.08917      .   S
    C191   N291      1.34943  1_554   S
    C193   H58       1.08990      .   S
    C193   C185      1.40330  1_554   S
    C192   H59       1.09015  1_455   S
    C192   C184      1.40329  1_554   S
    C274   C276      1.47943      .   S
    C274   H104      1.08991      .   S
    C275   C277      1.47943      .   S
    C275   H105      1.08992      .   S
    C277   H107      1.04375  1_545   S
    C276   H106      1.04412  1_545   S
    O298   C112      1.27492      .   S
    O298   Zn0       2.10156  1_554   S
    O299   C113      1.27492      .   S
    O299   Zn1       2.10156  1_554   S
    O316   C282      1.27322      .   S
    O316   Zn6       2.11860  1_554   S
    O317   C283      1.27337      .   S
    O317   Zn7       2.11860  1_554   S
    O306   C196      1.27266      .   S
    O307   C197      1.27267      .   S
    O304   C196      1.27941      .   S
    O304   Zn1       2.07456  1_554   S
    O305   C197      1.27944      .   S
    O305   Zn0       2.07477  1_654   S
    O326   C286      1.27571      .   S
    O327   C287      1.27571      .   S
    O324   C286      1.27656      .   S
    O324   Zn6       2.05774  1_554   S
    O325   C287      1.27632      .   S
    O325   Zn7       2.05853  1_554   S
    O296   C112      1.27599      .   S
    O297   C113      1.27597      .   S
    O318   C282      1.28099      .   S
    O319   C283      1.28105      .   S
    C197   C157      1.49780      .   S
    C196   C156      1.49781      .   S
    C112   C114      1.49791      .   S
    C113   C115      1.49792      .   S
    C282   C256      1.49795      .   S
    C283   C257      1.49771      .   S
    C286   C232      1.49547      .   S
    C287   C233      1.49650      .   S
    H8     C116      1.08931      .   S
    H9     C117      1.08931      .   S
    H93    C259      1.08868      .   S
    H92    C258      1.08867      .   S
    H33    C159      1.08925      .   S
    H32    C158      1.08927      .   S
    H76    C234      1.08960      .   S
    H77    C235      1.08962      .   S
    C156   C158      1.40288      .   S
    C156   C154      1.40309      .   S
    C157   C159      1.40288      .   S
    C157   C155      1.40310      .   S
    C115   C117      1.40282      .   S
    C115   C125      1.40104      .   S
    C114   C116      1.40279      .   S
    C114   C124      1.40104      .   S
    C117   C119      1.39175      .   S
    C116   C118      1.39177      .   S
    C256   C258      1.40316      .   S
    C256   C254      1.40268      .   S
    C257   C259      1.40316      .   S
    C257   C255      1.40267      .   S
    C232   C234      1.40301      .   S
    C232   C230      1.40214      .   S
    C233   C235      1.40282      .   S
    C233   C231      1.40130      .   S
    C259   C261      1.39240      .   S
    C258   C260      1.39240      .   S
    C159   C161      1.39323      .   S
    C158   C160      1.39323      .   S
    C234   C236      1.39223      .   S
    C235   C237      1.39223      .   S
    H30    C154      1.08938      .   S
    H31    C155      1.08939      .   S
    H74    C230      1.08898      .   S
    H75    C231      1.08897      .   S
    C155   C153      1.39025      .   S
    C154   C152      1.39023      .   S
    H15    C125      1.08889      .   S
    H14    C124      1.08889      .   S
    C230   C228      1.39058      .   S
    C231   C229      1.39058      .   S
    H91    C255      1.08930      .   S
    H90    C254      1.08931      .   S
    C124   C122      1.39131      .   S
    C125   C123      1.39130      .   S
    C254   C252      1.39134      .   S
    C255   C253      1.39134      .   S
    C118   H10       1.09024      .   S
    C118   C120      1.40530      .   S
    C119   H11       1.09024      .   S
    C119   C121      1.40530      .   S
    C260   H95       1.09012      .   S
    C260   C250      1.40503      .   S
    C261   H94       1.09036  1_655   S
    C261   C251      1.40501      .   S
    C161   H35       1.08994      .   S
    C161   C151      1.40604      .   S
    C160   H34       1.08994      .   S
    C160   C150      1.40604      .   S
    C236   H78       1.09002      .   S
    C236   C226      1.40580      .   S
    C237   H79       1.09003      .   S
    C237   C227      1.40579      .   S
    C152   C150      1.40531      .   S
    C152   H28       1.09097      .   S
    C153   C151      1.40533      .   S
    C153   H29       1.09096      .   S
    C228   C226      1.40414      .   S
    C228   H72       1.08975      .   S
    C229   C227      1.40413      .   S
    C229   H73       1.08976      .   S
    C123   C121      1.40436      .   S
    C123   H13       1.09061      .   S
    C122   C120      1.40436      .   S
    C122   H12       1.09061      .   S
    C151   C129      1.48424      .   S
    C150   C128      1.48426      .   S
    C120   C126      1.48388      .   S
    C121   C127      1.48388      .   S
    C252   C250      1.40477      .   S
    C252   H88       1.09107      .   S
    C253   C251      1.40478      .   S
    C253   H89       1.09106      .   S
    C250   C223      1.48468      .   S
    C251   C222      1.48489  1_655   S
    C226   C220      1.48379      .   S
    C227   C221      1.48381      .   S
    C129   C127      1.41309      .   S
    C129   C131      1.40173      .   S
    C128   C126      1.41309      .   S
    C128   C130      1.40173      .   S
    C126   C136      1.40136      .   S
    C127   C137      1.40136      .   S
    C223   C221      1.41289      .   S
    C223   C224      1.40087      .   S
    C222   C220      1.41289      .   S
    C222   C225      1.40106  1_455   S
    C220   C218      1.40151      .   S
    C221   C219      1.40151      .   S
    H17    C131      1.09114      .   S
    H16    C130      1.09114      .   S
    C130   C132      1.40159      .   S
    C131   C133      1.40158      .   S
    C137   H19       1.09112      .   S
    C137   C135      1.40077      .   S
    C136   H18       1.09112      .   S
    C136   C134      1.40077      .   S
    H70    C224      1.09114      .   S
    H71    C225      1.09111      .   S
    C225   C214      1.40103  1_655   S
    C224   C215      1.40126      .   S
    C219   H69       1.09111      .   S
    C219   C217      1.40182      .   S
    C218   H68       1.09111      .   S
    C218   C216      1.40182      .   S
    C133   C135      1.41290      .   S
    C133   C139      1.48384      .   S
    C132   C134      1.41290      .   S
    C132   C138      1.48384      .   S
    C135   C163      1.48466      .   S
    C134   C162      1.48466      .   S
    C214   C216      1.41311      .   S
    C214   C209      1.48458  1_455   S
    C215   C217      1.41311      .   S
    C215   C208      1.48397      .   S
    C217   C239      1.48416      .   S
    C216   C238      1.48417      .   S
    H36    C164      1.09110      .   S
    H37    C165      1.09110      .   S
    H64    C210      1.09065      .   S
    H65    C211      1.09063      .   S
    H21    C141      1.08965      .   S
    H20    C140      1.08965      .   S
    H81    C241      1.09105      .   S
    H80    C240      1.09019      .   S
    C138   C140      1.40415      .   S
    C138   C148      1.40579      .   S
    C139   C141      1.40413      .   S
    C139   C149      1.40579      .   S
    C162   C164      1.40478      .   S
    C162   C172      1.40507      .   S
    C163   C165      1.40478      .   S
    C163   C173      1.40507      .   S
    C164   C166      1.39065      .   S
    C165   C167      1.39131      .   S
    C209   C211      1.40436      .   S
    C209   C207      1.40533      .   S
    C208   C210      1.40434      .   S
    C208   C206      1.40532      .   S
    C239   C241      1.40518      .   S
    C239   C249      1.40615      .   S
    C238   C240      1.40518      .   S
    C238   C248      1.40616      .   S
    C211   C213      1.39127      .   S
    C210   C212      1.39048      .   S
    C141   C143      1.39064      .   S
    C140   C142      1.39063      .   S
    C240   C242      1.39118      .   S
    C241   C243      1.39118      .   S
    H26    C148      1.09004      .   S
    H27    C149      1.09002      .   S
    H86    C248      1.08993      .   S
    H87    C249      1.08996      .   S
    C148   C146      1.39225      .   S
    C149   C147      1.39227      .   S
    H43    C173      1.09031      .   S
    H42    C172      1.09010      .   S
    C248   C246      1.39323      .   S
    C249   C247      1.39323      .   S
    C172   C170      1.39232      .   S
    C173   C171      1.39232      .   S
    H63    C206      1.09026      .   S
    H62    C207      1.09053  1_455   S
    C206   C204      1.39155      .   S
    C207   C205      1.39157      .   S
    C166   H38       1.08943      .   S
    C166   C168      1.40320      .   S
    C167   H39       1.08930      .   S
    C167   C169      1.40269      .   S
    C212   H66       1.08906      .   S
    C212   C202      1.40168      .   S
    C213   H67       1.08890      .   S
    C213   C203      1.40105      .   S
    C143   H23       1.08898      .   S
    C143   C145      1.40131      .   S
    C142   H22       1.08899      .   S
    C142   C144      1.40131      .   S
    C243   H83       1.08939      .   S
    C243   C245      1.40310      .   S
    C242   H82       1.08938      .   S
    C242   C244      1.40310      .   S
    C147   C145      1.40285      .   S
    C147   H25       1.08969      .   S
    C146   C144      1.40285      .   S
    C146   H24       1.08968      .   S
    C246   C244      1.40289      .   S
    C246   H84       1.08921      .   S
    C247   C245      1.40287      .   S
    C247   H85       1.08920      .   S
    C171   C169      1.40316      .   S
    C171   H41       1.08871      .   S
    C170   C168      1.40316      .   S
    C170   H40       1.08871      .   S
    C145   C199      1.49664      .   S
    C144   C198      1.49662      .   S
    C168   C194      1.49768      .   S
    C169   C195      1.49768      .   S
    C204   C202      1.40282      .   S
    C204   H60       1.08943      .   S
    C205   C203      1.40282      .   S
    C205   H61       1.08942      .   S
    C202   C200      1.49693      .   S
    C203   C201      1.49690      .   S
    C244   C284      1.49783      .   S
    C245   C285      1.49782      .   S
    C198   O308      1.27601      .   S
    C198   O310      1.27572      .   S
    C199   O309      1.27601      .   S
    C199   O311      1.27570      .   S
    C195   O303      1.28102      .   S
    C195   O301      1.27274      .   S
    C194   O302      1.28102      .   S
    C194   O300      1.27274      .   S
    C200   O312      1.27620      .   S
    C200   O314      1.27553      .   S
    C201   O313      1.27621      .   S
    C201   O315      1.27554      .   S
    C285   O321      1.27944      .   S
    C285   O323      1.27271      .   S
    C284   O320      1.27943      .   S
    C284   O322      1.27269      .   S
    O302   Zn0       2.05444      .   S
    O303   Zn1       2.05444      .   S
    O312   Zn6       2.05007      .   S
    O313   Zn7       2.05005      .   S
    O311   Zn0       2.08967  1_655   S
    O310   Zn1       2.08936      .   S
    H54    C188      1.09028  1_545   S
    H55    C189      1.08982  1_545   S
    H53    C187      1.08993      .   S
    H52    C186      1.08993      .   S
    O323   Zn7       2.11449      .   S
    O322   Zn6       2.11448      .   S
    H110   C280      1.09016      .   S
    H111   C281      1.08997      .   S
    H109   C279      1.08920      .   S
    H108   C278      1.08919      .   S
    C189   C187      1.38839      .   S
    C189   N291      1.34902  1_565   S
    C188   C186      1.38834      .   S
    C188   N290      1.34895  1_565   S
    C186   C184      1.40429      .   S
    C187   C185      1.40429      .   S
    C281   C279      1.38768  1_545   S
    C280   C278      1.38768  1_545   S
    H96    C262      1.08692      .   S
    H97    C263      1.08692      .   S
    N291   Zn1       2.05988      .   S
    N290   Zn0       2.05988      .   S
    H99    C265      1.08852      .   S
    H98    C264      1.08852      .   S
    C262   C264      1.38771      .   S
    C262   N292      1.34914      .   S
    C263   C265      1.38771      .   S
    C263   N293      1.34914      .   S
    H49    C181      1.08804      .   S
    H48    C180      1.08804      .   S
    N292   Zn6       2.04808      .   S
    N293   Zn7       2.04808      .   S
    C185   C179      1.47453      .   S
    C184   C178      1.47453      .   S
    H50    C183      1.08692      .   S
    H51    C182      1.08722      .   S
    C180   C183      1.38617      .   S
    C180   C179      1.40017      .   S
    C181   C182      1.38617      .   S
    C181   C178      1.40046  1_655   S
    Zn0    Zn2       2.82628  1_556   S
    Zn1    Zn3       2.82628  1_556   S
    Zn4    Zn6       2.82629  1_554   S
    Zn5    Zn7       2.82629  1_554   S
