# CIF file generated by openbabel 2.4.90, see http://openbabel.sf.net
data_I
_chemical_name_common ''
_cell_length_a 12.819
_cell_length_b 14.257
_cell_length_c 20.172
_cell_angle_alpha 89.872
_cell_angle_beta 95.078
_cell_angle_gamma 90.126
_space_group_name_H-M_alt 'P 1'
_space_group_name_Hall 'P 1'
loop_
    _symmetry_equiv_pos_as_xyz
    x,y,z
loop_
    _atom_site_label
    _atom_site_type_symbol
    _atom_site_fract_x
    _atom_site_fract_y
    _atom_site_fract_z
    _atom_site_occupancy
    Lv0     Lv   0.74251   0.31134   0.71492   1.000
    Lv1     Lv   0.25685   0.81267   0.78475   1.000
    Lv2     Lv   0.24896   0.99999   0.50009   1.000
    Lv3     Lv   0.25052   0.50011   0.99980   1.000
    Lv4     Lv   0.24181   0.18748   0.21509   1.000
    Lv5     Lv   0.74164   0.18845   0.21482   1.000
    Lv6     Lv   0.74924   0.49989   0.00018   1.000
    Lv7     Lv   0.24195   0.31117   0.71457   1.000
    Lv8     Lv   0.25639   0.68864   0.28531   1.000
    Lv9     Lv   0.75676   0.68909   0.28538   1.000
    Lv10    Lv   0.75698   0.81201   0.78493   1.000
    Lv11    Lv   0.74894   0.99995   0.49985   1.000
