# CIF file generated by openbabel 2.4.90, see http://openbabel.sf.net
data_I
_chemical_name_common ''
_cell_length_a 12.819
_cell_length_b 14.257
_cell_length_c 20.172
_cell_angle_alpha 89.872
_cell_angle_beta 95.078
_cell_angle_gamma 90.126
_space_group_name_H-M_alt 'P 1'
_space_group_name_Hall 'P 1'
loop_
    _symmetry_equiv_pos_as_xyz
    x,y,z
loop_
    _atom_site_label
    _atom_site_type_symbol
    _atom_site_fract_x
    _atom_site_fract_y
    _atom_site_fract_z
    _atom_site_occupancy
    H0      H    0.10207   0.64502   0.46201   1.000
    H1      H    0.60145   0.64221   0.46180   1.000
    H2      H    0.41914   0.55336   0.60894   1.000
    H3      H    0.91915   0.55304   0.60857   1.000
    H4      H    0.39696   0.14362   0.03807   1.000
    H5      H    0.89746   0.14341   0.03778   1.000
    H6      H    0.07979   0.05191   0.89106   1.000
    H7      H    0.57914   0.05179   0.89121   1.000
    H8      H    0.39576   0.35483   0.53807   1.000
    H9      H    0.89633   0.35772   0.53831   1.000
    H10     H    0.07868   0.44660   0.39118   1.000
    H11     H    0.57871   0.44705   0.39159   1.000
    H12     H    0.10221   0.85637   0.96215   1.000
    H13     H    0.60232   0.85696   0.96182   1.000
    H14     H    0.42019   0.94798   0.10899   1.000
    H15     H    0.91972   0.94828   0.10861   1.000
    C16     C    0.16356   0.42134   0.59958   1.000
    C17     C    0.66391   0.42118   0.59980   1.000
    C18     C    0.32119   0.20790   0.83277   1.000
    C19     C    0.82221   0.20804   0.83302   1.000
    O20     O    0.93286   0.93381   0.91140   1.000
    O21     O    0.08372   0.73189   0.64426   1.000
    O22     O    0.58354   0.72849   0.64510   1.000
    O23     O    0.23617   0.65064   0.64157   1.000
    C24     C    0.16748   0.31100   0.98573   1.000
    C25     C    0.66599   0.31087   0.98584   1.000
    C26     C    0.33479   0.92140   0.90022   1.000
    C27     C    0.83475   0.92151   0.90016   1.000
    C28     C    0.17766   0.70994   0.66657   1.000
    C29     C    0.67820   0.70839   0.66702   1.000
    C30     C    0.33411   0.81183   0.51339   1.000
    C31     C    0.83245   0.81149   0.51315   1.000
    C32     C    0.33449   0.57857   0.40042   1.000
    C33     C    0.83438   0.57883   0.40041   1.000
    C34     C    0.17731   0.79194   0.16707   1.000
    C35     C    0.67815   0.79261   0.16725   1.000
    C36     C    0.33380   0.68911   0.01413   1.000
    C37     C    0.83229   0.68902   0.01426   1.000
    C38     C    0.16434   0.07839   0.09969   1.000
    C39     C    0.66436   0.07879   0.09961   1.000
    C40     C    0.32042   0.29026   0.33337   1.000
    C41     C    0.81983   0.29177   0.33296   1.000
    C42     C    0.16379   0.18814   0.48671   1.000
    C43     C    0.66544   0.18843   0.48670   1.000
    O44     O    0.23185   0.45672   0.56344   1.000
    O45     O    0.73240   0.45651   0.56377   1.000
    O46     O    0.06535   0.43268   0.58825   1.000
    O47     O    0.56563   0.43219   0.58839   1.000
    O48     O    0.41522   0.22979   0.85509   1.000
    O49     O    0.91618   0.23014   0.85532   1.000
    O50     O    0.26240   0.14856   0.85794   1.000
    O51     O    0.76370   0.14842   0.85810   1.000
    O52     O    0.23105   0.24320   0.98897   1.000
    O53     O    0.72942   0.24300   0.98902   1.000
    O54     O    0.06691   0.30470   0.97511   1.000
    O55     O    0.56539   0.30473   0.97515   1.000
    O56     O    0.09881   0.62021   0.50691   1.000
    O57     O    0.59841   0.61798   0.50688   1.000
    O58     O    0.40979   0.58362   0.56542   1.000
    O59     O    0.90985   0.58379   0.56522   1.000
    O60     O    0.26634   0.95527   0.93670   1.000
    O61     O    0.76607   0.95546   0.93646   1.000
    O62     O    0.43289   0.93373   0.91143   1.000
    O63     O    0.73786   0.65045   0.64162   1.000
    O64     O    0.27106   0.74343   0.50883   1.000
    O65     O    0.76921   0.74320   0.50890   1.000
    O66     O    0.43462   0.80645   0.52506   1.000
    O67     O    0.93293   0.80615   0.52473   1.000
    O68     O    0.40037   0.11873   0.99330   1.000
    O69     O    0.90073   0.11882   0.99291   1.000
    O70     O    0.08958   0.08245   0.93430   1.000
    O71     O    0.58898   0.08266   0.93441   1.000
    O72     O    0.26610   0.54324   0.43650   1.000
    O73     O    0.76572   0.54348   0.43629   1.000
    O74     O    0.43270   0.56723   0.41186   1.000
    O75     O    0.93263   0.56764   0.41188   1.000
    O76     O    0.08334   0.76997   0.14472   1.000
    O77     O    0.58392   0.77121   0.14500   1.000
    O78     O    0.23602   0.85140   0.14198   1.000
    O79     O    0.73738   0.85144   0.14190   1.000
    O80     O    0.27036   0.75698   0.01091   1.000
    O81     O    0.76875   0.75684   0.01102   1.000
    O82     O    0.43438   0.69526   0.02486   1.000
    O83     O    0.93288   0.69528   0.02485   1.000
    O84     O    0.39911   0.37973   0.49320   1.000
    O85     O    0.89947   0.38195   0.49324   1.000
    O86     O    0.08811   0.41630   0.43469   1.000
    O87     O    0.58809   0.41623   0.43490   1.000
    O88     O    0.23289   0.04453   0.06320   1.000
    O89     O    0.73316   0.04481   0.06341   1.000
    O90     O    0.06624   0.06610   0.08847   1.000
    O91     O    0.56630   0.06619   0.08841   1.000
    O92     O    0.41434   0.26834   0.35575   1.000
    O93     O    0.91441   0.27158   0.35499   1.000
    O94     O    0.26170   0.34933   0.35840   1.000
    O95     O    0.76001   0.34954   0.35838   1.000
    O96     O    0.22682   0.25655   0.49124   1.000
    O97     O    0.72869   0.25670   0.49100   1.000
    O98     O    0.06329   0.19350   0.47498   1.000
    O99     O    0.56495   0.19380   0.47524   1.000
    O100    O    0.09888   0.88109   0.00698   1.000
    O101    O    0.59893   0.88164   0.00660   1.000
    O102    O    0.41019   0.91727   0.06574   1.000
    O103    O    0.90992   0.91753   0.06536   1.000
loop_
    _geom_bond_atom_site_label_1
    _geom_bond_atom_site_label_2
    _geom_bond_distance
    _geom_bond_site_symmetry_2
    _ccdc_geom_bond_type
    O101   H13       0.97472  1_554   S
    O100   H12       0.97578  1_554   S
    O80    C36       1.26324      .   S
    O81    C37       1.26344      .   S
    C36    O82       1.29128      .   S
    C37    O83       1.29120      .   S
    H5     O69       0.97575  1_554   S
    H4     O68       0.97566  1_554   S
    O88    C38       1.29037      .   S
    O89    C39       1.28968      .   S
    O103   H15       0.97525      .   S
    O102   H14       0.97516      .   S
    O91    C39       1.26968      .   S
    O90    C38       1.26969      .   S
    O79    C35       1.26708      .   S
    O78    C34       1.26649      .   S
    O76    C34       1.28663      .   S
    O77    C35       1.28710      .   S
    C41    O93       1.28684      .   S
    C41    O95       1.26635      .   S
    C40    O92       1.28671      .   S
    C40    O94       1.26603      .   S
    H10    O86       0.97536      .   S
    H11    O87       0.97506      .   S
    C33    O75       1.27055      .   S
    C33    O73       1.28913      .   S
    C32    O74       1.27027      .   S
    C32    O72       1.28896      .   S
    H1     O57       0.97599      .   S
    H0     O56       0.97592      .   S
    O98    C42       1.29148      .   S
    O99    C43       1.29094      .   S
    C43    O97       1.26362      .   S
    C42    O96       1.26342      .   S
    O84    H8        0.97595      .   S
    O85    H9        0.97595      .   S
    O64    C30       1.26344      .   S
    O65    C31       1.26369      .   S
    C31    O67       1.29091      .   S
    C30    O66       1.29152      .   S
    O44    C16       1.28899      .   S
    O45    C17       1.28925      .   S
    O59    H3        0.97525      .   S
    O58    H2        0.97522      .   S
    O46    C16       1.27017      .   S
    O47    C17       1.27055      .   S
    O23    C28       1.26622      .   S
    O63    C29       1.26635      .   S
    O21    C28       1.28678      .   S
    O22    C29       1.28686      .   S
    C18    O48       1.28682      .   S
    C18    O50       1.26666      .   S
    C19    O49       1.28673      .   S
    C19    O51       1.26635      .   S
    H6     O70       0.97379      .   S
    H7     O71       0.97519      .   S
    C27    O20       1.26984      .   S
    C27    O61       1.28971      .   S
    C26    O62       1.26986      .   S
    C26    O60       1.28930      .   S
    O54    C24       1.29102      .   S
    O55    C25       1.29134      .   S
    C24    O52       1.26354      .   S
    C25    O53       1.26322      .   S
