# CIF file generated by openbabel 2.4.90, see http://openbabel.sf.net
data_I
_chemical_name_common ''
_cell_length_a 12.819
_cell_length_b 14.257
_cell_length_c 20.172
_cell_angle_alpha 89.872
_cell_angle_beta 95.078
_cell_angle_gamma 90.126
_space_group_name_H-M_alt 'P 1'
_space_group_name_Hall 'P 1'
loop_
    _symmetry_equiv_pos_as_xyz
    x,y,z
loop_
    _atom_site_label
    _atom_site_type_symbol
    _atom_site_fract_x
    _atom_site_fract_y
    _atom_site_fract_z
    _atom_site_occupancy
    C0      C    0.16356   0.42134   0.59958   1.000
    C1      C    0.66391   0.42118   0.59980   1.000
    C2      C    0.32119   0.20790   0.83277   1.000
    C3      C    0.82221   0.20804   0.83302   1.000
    C4      C    0.16748   0.31100   0.98573   1.000
    C5      C    0.66599   0.31087   0.98584   1.000
    C6      C    0.33479   0.92140   0.90022   1.000
    C7      C    0.83475   0.92151   0.90016   1.000
    C8      C    0.17766   0.70994   0.66657   1.000
    C9      C    0.67820   0.70839   0.66702   1.000
    C10     C    0.33411   0.81183   0.51339   1.000
    C11     C    0.83245   0.81149   0.51315   1.000
    C12     C    0.33449   0.57857   0.40042   1.000
    C13     C    0.83438   0.57883   0.40041   1.000
    C14     C    0.17731   0.79194   0.16707   1.000
    C15     C    0.67815   0.79261   0.16725   1.000
    C16     C    0.33380   0.68911   0.01413   1.000
    C17     C    0.83229   0.68902   0.01426   1.000
    C18     C    0.16434   0.07839   0.09969   1.000
    C19     C    0.66436   0.07879   0.09961   1.000
    C20     C    0.32042   0.29026   0.33337   1.000
    C21     C    0.81983   0.29177   0.33296   1.000
    C22     C    0.16379   0.18814   0.48671   1.000
    C23     C    0.66544   0.18843   0.48670   1.000
