# CIF file generated by openbabel 2.4.90, see http://openbabel.sf.net
data_I
_chemical_name_common ''
_cell_length_a 12.819
_cell_length_b 14.257
_cell_length_c 20.172
_cell_angle_alpha 89.872
_cell_angle_beta 95.078
_cell_angle_gamma 90.126
_space_group_name_H-M_alt 'P 1'
_space_group_name_Hall 'P 1'
loop_
    _symmetry_equiv_pos_as_xyz
    x,y,z
loop_
    _atom_site_label
    _atom_site_type_symbol
    _atom_site_fract_x
    _atom_site_fract_y
    _atom_site_fract_z
    _atom_site_occupancy
    Zr0     Zr   0.49338   0.19380   0.93868   1.000
    Zr1     Zr   0.99468   0.19382   0.93877   1.000
    Zr2     Zr   0.25250   0.60511   0.54419   1.000
    Zr3     Zr   0.75163   0.60479   0.54418   1.000
    Zr4     Zr   0.00510   0.69531   0.56102   1.000
    Zr5     Zr   0.50643   0.69483   0.56077   1.000
    Zr6     Zr   0.24750   0.10372   0.95568   1.000
    Zr7     Zr   0.74692   0.10380   0.95560   1.000
    Zr8     Zr   0.00498   0.80620   0.06121   1.000
    Zr9     Zr   0.50641   0.80627   0.06118   1.000
    Zr10    Zr   0.24539   0.39486   0.45580   1.000
    Zr11    Zr   0.74625   0.39517   0.45585   1.000
    Zr12    Zr   0.49279   0.30470   0.43903   1.000
    Zr13    Zr   0.99142   0.30513   0.43932   1.000
    Zr14    Zr   0.25263   0.89603   0.04436   1.000
    Zr15    Zr   0.75186   0.89642   0.04425   1.000
    Zr16    Zr   0.99980   0.50102   0.49996   1.000
    Zr17    Zr   0.49807   0.49886   0.50017   1.000
    Zr18    Zr   0.99987   0.99997   0.99993   1.000
    Zr19    Zr   0.49872   0.99999   0.99997   1.000
    N20     N    0.74251   0.31134   0.71492   1.000
    N21     N    0.25685   0.81267   0.78475   1.000
    N22     N    0.24896   0.99999   0.50009   1.000
    N23     N    0.25052   0.50011   0.99980   1.000
    N24     N    0.24181   0.18748   0.21509   1.000
    N25     N    0.74164   0.18845   0.21482   1.000
    N26     N    0.74924   0.49989   0.00018   1.000
    N27     N    0.24195   0.31117   0.71457   1.000
    N28     N    0.25639   0.68864   0.28531   1.000
    N29     N    0.75676   0.68909   0.28538   1.000
    N30     N    0.75698   0.81201   0.78493   1.000
    N31     N    0.74894   0.99995   0.49985   1.000
    C32     C    0.65461   0.06326   0.08381   1.000
    O33     O    0.69856   0.01694   0.06882   1.000
    O34     O    0.68375   0.10564   0.12788   1.000
    O35     O    0.59356   0.04818   0.06400   1.000
    C36     C    0.15449   0.06301   0.08379   1.000
    O37     O    0.18374   0.10514   0.12796   1.000
    O38     O    0.09377   0.04802   0.06399   1.000
    O39     O    0.19862   0.01664   0.06878   1.000
    C40     C    0.84464   0.71371   0.01671   1.000
    O41     O    0.80247   0.77017   0.02217   1.000
    O42     O    0.90678   0.73223   0.02987   1.000
    O43     O    0.81230   0.64190   0.01092   1.000
    C44     C    0.83403   0.19553   0.84881   1.000
    O45     O    0.80302   0.23409   0.80368   1.000
    O46     O    0.89473   0.20375   0.87293   1.000
    O47     O    0.79467   0.16082   0.87783   1.000
    C48     C    0.91482   0.93291   0.08699   1.000
    O49     O    0.93614   0.89739   0.07514   1.000
    O50     O    0.87286   0.91994   0.07090   1.000
    O51     O    0.93486   0.94583   0.05982   1.000
    C52     C    0.10054   0.86873   0.98457   1.000
    O53     O    0.07623   0.85619   0.00933   1.000
    O54     O    0.13815   0.87865   0.00512   1.000
    O55     O    0.07496   0.90463   0.99401   1.000
    C56     C    0.33294   0.19542   0.84860   1.000
    O57     O    0.29394   0.16078   0.87771   1.000
    O58     O    0.39362   0.20361   0.87274   1.000
    O59     O    0.30211   0.23394   0.80341   1.000
    C60     C    0.66648   0.80509   0.15138   1.000
    O61     O    0.70555   0.83951   0.12223   1.000
    O62     O    0.60583   0.79691   0.12724   1.000
    O63     O    0.69708   0.76648   0.19657   1.000
    C64     C    0.08468   0.06718   0.91268   1.000
    O65     O    0.06341   0.10266   0.92461   1.000
    O66     O    0.12661   0.08013   0.92884   1.000
    O67     O    0.06470   0.05420   0.93990   1.000
    C68     C    0.84456   0.93693   0.91601   1.000
    O69     O    0.81524   0.89466   0.87191   1.000
    O70     O    0.80052   0.98328   0.93102   1.000
    O71     O    0.90546   0.95191   0.93584   1.000
    C72     C    0.65360   0.28620   0.98334   1.000
    O73     O    0.69588   0.22980   0.97782   1.000
    O74     O    0.59149   0.26773   0.97013   1.000
    O75     O    0.68603   0.35796   0.98924   1.000
    C76     C    0.41519   0.93262   0.08737   1.000
    O77     O    0.43675   0.89720   0.07541   1.000
    O78     O    0.37330   0.91963   0.07121   1.000
    O79     O    0.43482   0.94562   0.06011   1.000
    C80     C    0.16556   0.80444   0.15126   1.000
    O81     O    0.19634   0.76590   0.19645   1.000
    O82     O    0.10486   0.79626   0.12711   1.000
    O83     O    0.20494   0.83908   0.12221   1.000
    C84     C    0.34618   0.71378   0.01663   1.000
    O85     O    0.40829   0.73227   0.02983   1.000
    O86     O    0.30384   0.77014   0.02213   1.000
    O87     O    0.31375   0.64203   0.01073   1.000
    C88     C    0.34467   0.93680   0.91612   1.000
    O89     O    0.30080   0.98315   0.93115   1.000
    O90     O    0.31526   0.89478   0.87192   1.000
    O91     O    0.40524   0.95183   0.93591   1.000
    C92     C    0.58406   0.06723   0.91281   1.000
    O93     O    0.56262   0.10273   0.92468   1.000
    O94     O    0.62600   0.08023   0.92891   1.000
    O95     O    0.56395   0.05427   0.94000   1.000
    C96     C    0.15515   0.28630   0.98327   1.000
    O97     O    0.09297   0.26778   0.97011   1.000
    O98     O    0.18747   0.35811   0.98906   1.000
    O99     O    0.19721   0.22988   0.97780   1.000
    C100    C    0.39867   0.13117   0.01569   1.000
    O101    O    0.42277   0.14372   0.99084   1.000
    O102    O    0.36130   0.12120   0.99509   1.000
    O103    O    0.42411   0.09527   0.00616   1.000
    C104    C    0.89910   0.13112   0.01535   1.000
    O105    O    0.92340   0.14372   0.99059   1.000
    O106    O    0.86146   0.12121   0.99480   1.000
    O107    O    0.92470   0.09526   0.00588   1.000
    C108    C    0.60062   0.86930   0.98421   1.000
    O109    O    0.57665   0.85663   0.00905   1.000
    O110    O    0.63801   0.87917   0.00482   1.000
    O111    O    0.57472   0.90506   0.99375   1.000
    C112    C    0.84486   0.78695   0.51559   1.000
    O113    O    0.81234   0.85847   0.51003   1.000
    O114    O    0.90694   0.76884   0.52923   1.000
    O115    O    0.80264   0.73047   0.52107   1.000
    C116    C    0.84424   0.56332   0.41619   1.000
    O117    O    0.81494   0.60590   0.37220   1.000
    O118    O    0.80011   0.51632   0.43113   1.000
    O119    O    0.90523   0.54883   0.43606   1.000
    C120    C    0.59993   0.63010   0.48434   1.000
    O121    O    0.57618   0.64325   0.50908   1.000
    O122    O    0.63748   0.62074   0.50494   1.000
    O123    O    0.57408   0.59426   0.49393   1.000
    C124    C    0.66653   0.69578   0.65125   1.000
    O125    O    0.60576   0.70372   0.62709   1.000
    O126    O    0.70564   0.66170   0.62207   1.000
    O127    O    0.69718   0.73449   0.69632   1.000
    C128    C    0.65303   0.21298   0.48431   1.000
    O129    O    0.69525   0.26946   0.47887   1.000
    O130    O    0.59095   0.23111   0.47072   1.000
    O131    O    0.68554   0.14145   0.48980   1.000
    C132    C    0.89790   0.36983   0.51578   1.000
    O133    O    0.92167   0.35668   0.49103   1.000
    O134    O    0.86038   0.37920   0.49516   1.000
    O135    O    0.92377   0.40566   0.50619   1.000
    C136    C    0.15358   0.43691   0.58376   1.000
    O137    O    0.19788   0.48392   0.56879   1.000
    O138    O    0.18318   0.39434   0.62776   1.000
    O139    O    0.09308   0.45188   0.56393   1.000
    C140    C    0.33215   0.30264   0.34917   1.000
    O141    O    0.29285   0.33737   0.37814   1.000
    O142    O    0.30151   0.26431   0.30398   1.000
    O143    O    0.39286   0.29458   0.37328   1.000
    C144    C    0.91450   0.56842   0.58690   1.000
    O145    O    0.93599   0.60398   0.57501   1.000
    O146    O    0.87262   0.58135   0.57080   1.000
    O147    O    0.93466   0.55541   0.55974   1.000
    C148    C    0.08339   0.43145   0.41294   1.000
    O149    O    0.06158   0.39608   0.42497   1.000
    O150    O    0.12507   0.41852   0.42909   1.000
    O151    O    0.06367   0.44506   0.44013   1.000
    C152    C    0.34659   0.78724   0.51576   1.000
    O153    O    0.40856   0.76894   0.52934   1.000
    O154    O    0.31356   0.85870   0.51025   1.000
    O155    O    0.30419   0.73075   0.52114   1.000
    C156    C    0.15130   0.21273   0.48431   1.000
    O157    O    0.08933   0.23102   0.47073   1.000
    O158    O    0.18435   0.14127   0.48986   1.000
    O159    O    0.19370   0.26922   0.47892   1.000
    C160    C    0.83142   0.30430   0.34878   1.000
    O161    O    0.89216   0.29633   0.37297   1.000
    O162    O    0.80100   0.26573   0.30361   1.000
    O163    O    0.79227   0.33833   0.37795   1.000
    C164    C    0.58340   0.43164   0.41325   1.000
    O165    O    0.56192   0.39605   0.42511   1.000
    O166    O    0.62528   0.41867   0.42931   1.000
    O167    O    0.56324   0.44460   0.44039   1.000
    C168    C    0.41446   0.56849   0.58718   1.000
    O169    O    0.43629   0.60386   0.57514   1.000
    O170    O    0.37280   0.58143   0.57099   1.000
    O171    O    0.43420   0.55486   0.55999   1.000
    C172    C    0.16585   0.69749   0.65080   1.000
    O173    O    0.19671   0.73584   0.69595   1.000
    O174    O    0.20509   0.66268   0.62184   1.000
    O175    O    0.10513   0.70554   0.62672   1.000
    C176    C    0.65398   0.43663   0.58399   1.000
    O177    O    0.69800   0.48364   0.56898   1.000
    O178    O    0.68361   0.39422   0.62803   1.000
    O179    O    0.59291   0.45108   0.56413   1.000
    C180    C    0.10044   0.63261   0.48446   1.000
    O181    O    0.13805   0.62264   0.50501   1.000
    O182    O    0.07487   0.59661   0.49395   1.000
    O183    O    0.07620   0.64519   0.50921   1.000
    C184    C    0.39744   0.36728   0.51564   1.000
    O185    O    0.42169   0.35475   0.49088   1.000
    O186    O    0.35984   0.37729   0.49507   1.000
    O187    O    0.42301   0.40329   0.50616   1.000
    C188    C    0.34443   0.56302   0.41626   1.000
    O189    O    0.31494   0.60555   0.37221   1.000
    O190    O    0.40491   0.54803   0.43614   1.000
    O191    O    0.30009   0.51603   0.43121   1.000
loop_
    _geom_bond_atom_site_label_1
    _geom_bond_atom_site_label_2
    _geom_bond_distance
    _geom_bond_site_symmetry_2
    _ccdc_geom_bond_type
    C32    O33       0.93687      .   S
    Zr15   O33       1.93228  1_565   S
    C32    O34       1.11238      .   S
    N25    O34       2.18982      .   S
    C32    O35       0.87329      .   S
    Zr19   O35       1.82773  1_566   S
    C36    O37       1.11255      .   S
    N24    O37       2.18973      .   S
    C36    O38       0.86919      .   S
    Zr18   O38       1.82021  1_666   S
    C36    O39       0.93887      .   S
    Zr14   O39       1.93608  1_565   S
    C40    O41       0.98239      .   S
    Zr15   O41       1.97964      .   S
    C40    O42       0.85832      .   S
    Zr8    O42       1.71833  1_455   S
    C40    O43       1.10619      .   S
    N26    O43       2.18260      .   S
    C44    O45       1.10627      .   S
    N20    O45       2.18384      .   S
    C44    O46       0.88809      .   S
    Zr1    O46       1.76760      .   S
    C44    O47       0.94448      .   S
    Zr7    O47       1.91277      .   S
    C48    O49       0.63319      .   S
    Zr8    O49       1.61190  1_455   S
    C48    O50       0.63074      .   S
    Zr15   O50       1.63036      .   S
    C48    O51       0.65159      .   S
    Zr18   O51       1.70906  1_556   S
    C52    O53       0.63683  1_556   S
    Zr8    O53       1.61263      .   S
    C52    O54       0.62356  1_556   S
    Zr14   O54       1.62338      .   S
    C52    O55       0.64657      .   S
    Zr18   O55       1.67781  1_655   S
    C56    O57       0.94234      .   S
    Zr6    O57       1.91003      .   S
    C56    O58       0.88806      .   S
    Zr0    O58       1.76717      .   S
    C56    O59       1.10626      .   S
    N27    O59       2.18379      .   S
    C60    O61       0.94195      .   S
    Zr15   O61       1.90854      .   S
    C60    O62       0.88784      .   S
    Zr9    O62       1.76544      .   S
    C60    O63       1.10587      .   S
    N29    O63       2.18276      .   S
    C64    O65       0.63316      .   S
    Zr1    O65       1.61186  1_655   S
    C64    O66       0.63086      .   S
    Zr6    O66       1.63023      .   S
    C64    O67       0.65233      .   S
    Zr18   O67       1.71055  1_665   S
    C68    O69       1.11263      .   S
    N30    O69       2.19033      .   S
    C68    O70       0.93799      .   S
    Zr7    O70       1.93388  1_545   S
    C68    O71       0.87150      .   S
    Zr18   O71       1.82460      .   S
    C72    O73       0.98275      .   S
    Zr7    O73       1.97907      .   S
    C72    O74       0.85794      .   S
    Zr0    O74       1.71795      .   S
    C72    O75       1.10611      .   S
    N26    O75       2.18240  1_554   S
    C76    O77       0.63445      .   S
    Zr9    O77       1.61629      .   S
    C76    O78       0.63064      .   S
    Zr14   O78       1.62777      .   S
    C76    O79       0.65101      .   S
    Zr19   O79       1.70654  1_556   S
    C80    O81       1.10628      .   S
    N28    O81       2.18383      .   S
    C80    O82       0.88830      .   S
    Zr8    O82       1.76786      .   S
    C80    O83       0.94444      .   S
    Zr14   O83       1.91346      .   S
    C84    O85       0.85797      .   S
    Zr9    O85       1.71802      .   S
    C84    O86       0.98265      .   S
    Zr14   O86       1.97834      .   S
    C84    O87       1.10607      .   S
    N23    O87       2.18230  1_556   S
    C88    O89       0.93688      .   S
    Zr6    O89       1.93273  1_545   S
    C88    O90       1.11259      .   S
    N21    O90       2.18984      .   S
    C88    O91       0.86769      .   S
    Zr19   O91       1.81756      .   S
    C92    O93       0.63390      .   S
    Zr0    O93       1.61387      .   S
    C92    O94       0.63074      .   S
    Zr7    O94       1.62974      .   S
    C92    O95       0.65246      .   S
    Zr19   O95       1.71282  1_565   S
    C96    O97       0.85873      .   S
    Zr1    O97       1.71904  1_655   S
    C96    O98       1.10612      .   S
    N23    O98       2.18244      .   S
    C96    O99       0.98123      .   S
    Zr6    O99       1.97719      .   S
    C100   O101      0.63675  1_554   S
    Zr0    O101      1.61193      .   S
    C100   O102      0.62212  1_554   S
    Zr6    O102      1.61748      .   S
    C100   O103      0.64623      .   S
    Zr19   O103      1.67430  1_566   S
    C104   O105      0.63683  1_554   S
    Zr1    O105      1.61269      .   S
    C104   O106      0.62372  1_554   S
    Zr7    O106      1.62378      .   S
    C104   O107      0.64637      .   S
    Zr18   O107      1.67795  1_566   S
    C108   O109      0.63623  1_556   S
    Zr9    O109      1.61035      .   S
    C108   O110      0.62206  1_556   S
    Zr15   O110      1.61771      .   S
    C108   O111      0.64776      .   S
    Zr19   O111      1.68074      .   S
    C112   O113      1.10412      .   S
    N31    O113      2.17883      .   S
    C112   O114      0.85871      .   S
    Zr4    O114      1.71855  1_455   S
    C112   O115      0.98067      .   S
    Zr3    O115      1.97506      .   S
    C116   O117      1.11208      .   S
    N29    O117      2.18943      .   S
    C116   O118      0.94201      .   S
    Zr11   O118      1.93925      .   S
    C116   O119      0.87139      .   S
    Zr16   O119      1.82181      .   S
    C120   O121      0.63605      .   S
    Zr5    O121      1.61196      .   S
    C120   O122      0.62183      .   S
    Zr3    O122      1.61723      .   S
    C120   O123      0.64686      .   S
    Zr17   O123      1.68239      .   S
    C124   O125      0.88889      .   S
    Zr5    O125      1.76795      .   S
    C124   O126      0.94245      .   S
    Zr3    O126      1.90960      .   S
    C124   O127      1.10612      .   S
    N30    O127      2.18342      .   S
    C128   O129      0.98062      .   S
    Zr11   O129      1.97496      .   S
    C128   O130      0.85865      .   S
    Zr12   O130      1.71844      .   S
    C128   O131      1.10416      .   S
    N31    O131      2.17887  1_565   S
    C132   O133      0.63623      .   S
    Zr13   O133      1.61211      .   S
    C132   O134      0.62188      .   S
    Zr11   O134      1.61758      .   S
    C132   O135      0.64683      .   S
    Zr16   O135      1.68206      .   S
    C136   O137      0.94361      .   S
    Zr2    O137      1.94275      .   S
    C136   O138      1.11323      .   S
    N27    O138      2.19110      .   S
    C136   O139      0.86746      .   S
    Zr16   O139      1.81994  1_655   S
    C140   O141      0.94594      .   S
    Zr10   O141      1.91647      .   S
    C140   O142      1.10543      .   S
    N24    O142      2.18236      .   S
    C140   O143      0.88793      .   S
    Zr12   O143      1.76637      .   S
    C144   O145      0.63327      .   S
    Zr4    O145      1.61161  1_455   S
    C144   O146      0.63006      .   S
    Zr3    O146      1.63078      .   S
    C144   O147      0.65339      .   S
    Zr16   O147      1.71412      .   S
    C148   O149      0.63423      .   S
    Zr13   O149      1.61663  1_655   S
    C148   O150      0.62850      .   S
    Zr10   O150      1.62398      .   S
    C148   O151      0.65398      .   S
    Zr16   O151      1.71630  1_655   S
    C152   O153      0.85797      .   S
    Zr5    O153      1.71888      .   S
    C152   O154      1.10579      .   S
    N22    O154      2.18194      .   S
    C152   O155      0.98177      .   S
    Zr2    O155      1.97729      .   S
    C156   O157      0.85805      .   S
    Zr13   O157      1.71906  1_655   S
    C156   O158      1.10583      .   S
    N22    O158      2.18203  1_565   S
    C156   O159      0.98184      .   S
    Zr10   O159      1.97756      .   S
    C160   O161      0.88900      .   S
    Zr13   O161      1.76767      .   S
    C160   O162      1.10582      .   S
    N25    O162      2.18288      .   S
    C160   O163      0.94234      .   S
    Zr11   O163      1.90957      .   S
    C164   O165      0.63327      .   S
    Zr12   O165      1.61186      .   S
    C164   O166      0.62995      .   S
    Zr11   O166      1.63027      .   S
    C164   O167      0.65302      .   S
    Zr17   O167      1.71348      .   S
    C168   O169      0.63433      .   S
    Zr5    O169      1.61676      .   S
    C168   O170      0.62860      .   S
    Zr2    O170      1.62440      .   S
    C168   O171      0.65411      .   S
    Zr17   O171      1.71637      .   S
    C172   O173      1.10559      .   S
    N21    O173      2.18252      .   S
    C172   O174      0.94603      .   S
    Zr2    O174      1.91646      .   S
    C172   O175      0.88783      .   S
    Zr4    O175      1.76670      .   S
    C176   O177      0.94176      .   S
    Zr3    O177      1.93859      .   S
    C176   O178      1.11270      .   S
    N20    O178      2.19064      .   S
    C176   O179      0.87203      .   S
    Zr17   O179      1.82459      .   S
    C180   O181      0.62374      .   S
    Zr2    O181      1.62331      .   S
    C180   O182      0.64607      .   S
    Zr16   O182      1.67702  1_655   S
    C180   O183      0.63729      .   S
    Zr4    O183      1.61503      .   S
    C184   O185      0.63735      .   S
    Zr12   O185      1.61506      .   S
    C184   O186      0.62398      .   S
    Zr10   O186      1.62412      .   S
    C184   O187      0.64612      .   S
    Zr17   O187      1.67659      .   S
    C188   O189      1.11324      .   S
    N28    O189      2.19121      .   S
    C188   O190      0.86761      .   S
    Zr17   O190      1.82004      .   S
    C188   O191      0.94363      .   S
    Zr10   O191      1.94291      .   S
