# CIF file generated by openbabel 2.4.90, see http://openbabel.sf.net
data_I
_chemical_name_common ''
_cell_length_a 18.743
_cell_length_b 18.765
_cell_length_c 18.762
_cell_angle_alpha 59.98
_cell_angle_beta 60.083
_cell_angle_gamma 60.109
_space_group_name_H-M_alt 'P 1'
_space_group_name_Hall 'P 1'
loop_
    _symmetry_equiv_pos_as_xyz
    x,y,z
loop_
    _atom_site_label
    _atom_site_type_symbol
    _atom_site_fract_x
    _atom_site_fract_y
    _atom_site_fract_z
    _atom_site_occupancy
    Cu0     Cu   0.99971   0.43470   0.10000   1.000
    H1      H    0.73413   0.73416   0.50424   1.000
    H2      H    0.73406   0.73449   0.02730   1.000
    H3      H    0.50426   0.02790   0.73400   1.000
    H4      H    0.02729   0.50463   0.73401   1.000
    H5      H    0.73405   0.50515   0.02700   1.000
    H6      H    0.73418   0.02658   0.50518   1.000
    H7      H    0.50476   0.73382   0.73365   1.000
    H8      H    0.02810   0.73394   0.73364   1.000
    H9      H    0.73405   0.02771   0.73423   1.000
    H10     H    0.73426   0.50474   0.73405   1.000
    H11     H    0.50434   0.73398   0.02771   1.000
    H12     H    0.02802   0.73394   0.50412   1.000
    H13     H    0.26583   0.26583   0.49577   1.000
    H14     H    0.26581   0.26554   0.97267   1.000
    H15     H    0.97265   0.49535   0.26605   1.000
    H16     H    0.49572   0.97207   0.26597   1.000
    H17     H    0.49563   0.26587   0.97229   1.000
    H18     H    0.97194   0.26599   0.49590   1.000
    H19     H    0.26574   0.49520   0.26591   1.000
    H20     H    0.26592   0.97222   0.26582   1.000
    H21     H    0.97187   0.26606   0.26630   1.000
    H22     H    0.49523   0.26611   0.26639   1.000
    H23     H    0.26601   0.49478   0.97303   1.000
    H24     H    0.26583   0.97339   0.49482   1.000
    C25     C    0.25669   0.97150   0.38557   1.000
    C26     C    0.97067   0.25684   0.38632   1.000
    C27     C    0.38573   0.38592   0.25691   1.000
    C28     C    0.38607   0.38560   0.97132   1.000
    C29     C    0.25661   0.38579   0.38610   1.000
    C30     C    0.97089   0.38596   0.38624   1.000
    C31     C    0.38592   0.25652   0.97127   1.000
    C32     C    0.38604   0.97091   0.25670   1.000
    C33     C    0.25670   0.38543   0.97152   1.000
    C34     C    0.97094   0.38598   0.25697   1.000
    C35     C    0.38604   0.97137   0.38567   1.000
    C36     C    0.38575   0.25677   0.38629   1.000
    C37     C    0.02930   0.74313   0.61368   1.000
    C38     C    0.74330   0.02845   0.61445   1.000
    C39     C    0.61426   0.61403   0.74308   1.000
    C40     C    0.61394   0.61430   0.02870   1.000
    C41     C    0.61422   0.74320   0.61372   1.000
    C42     C    0.61396   0.02860   0.61431   1.000
    C43     C    0.74326   0.61455   0.02851   1.000
    C44     C    0.02901   0.61401   0.74305   1.000
    C45     C    0.61400   0.74342   0.02876   1.000
    C46     C    0.61394   0.02904   0.74331   1.000
    C47     C    0.02906   0.61400   0.61380   1.000
    C48     C    0.74337   0.61418   0.61388   1.000
    C49     C    0.57001   0.56977   0.83672   1.000
    C50     C    0.56968   0.56998   0.02361   1.000
    C51     C    0.83695   0.02311   0.57000   1.000
    C52     C    0.02404   0.83674   0.56946   1.000
    C53     C    0.56979   0.83693   0.02358   1.000
    C54     C    0.56972   0.02392   0.83683   1.000
    C55     C    0.83688   0.56996   0.56960   1.000
    C56     C    0.02389   0.56976   0.56960   1.000
    C57     C    0.56973   0.02339   0.57008   1.000
    C58     C    0.56998   0.83677   0.56948   1.000
    C59     C    0.83687   0.57037   0.02334   1.000
    C60     C    0.02372   0.56981   0.83672   1.000
    C61     C    0.42996   0.43018   0.16327   1.000
    C62     C    0.43035   0.42991   0.97640   1.000
    C63     C    0.97595   0.16322   0.43052   1.000
    C64     C    0.16304   0.97684   0.42973   1.000
    C65     C    0.16309   0.42966   0.97669   1.000
    C66     C    0.97624   0.43020   0.16300   1.000
    C67     C    0.42998   0.16320   0.43056   1.000
    C68     C    0.43028   0.97659   0.42990   1.000
    C69     C    0.97608   0.43018   0.43045   1.000
    C70     C    0.16310   0.43002   0.43030   1.000
    C71     C    0.43011   0.16302   0.97643   1.000
    C72     C    0.43025   0.97602   0.16318   1.000
    C73     C    0.29982   0.97161   0.42857   1.000
    C74     C    0.97063   0.29995   0.30018   1.000
    C75     C    0.42879   0.29993   0.30017   1.000
    C76     C    0.29990   0.42848   0.97147   1.000
    C77     C    0.29967   0.42884   0.29993   1.000
    C78     C    0.97064   0.29991   0.42939   1.000
    C79     C    0.42911   0.29966   0.97110   1.000
    C80     C    0.29985   0.97101   0.29968   1.000
    C81     C    0.29977   0.29947   0.97131   1.000
    C82     C    0.97101   0.42898   0.30005   1.000
    C83     C    0.42917   0.97091   0.29978   1.000
    C84     C    0.29970   0.29976   0.42928   1.000
    C85     C    0.02931   0.70005   0.57063   1.000
    C86     C    0.70013   0.02893   0.70035   1.000
    C87     C    0.70032   0.57111   0.70005   1.000
    C88     C    0.57086   0.70024   0.02892   1.000
    C89     C    0.57120   0.70003   0.69984   1.000
    C90     C    0.70018   0.02835   0.57144   1.000
    C91     C    0.70011   0.57146   0.02856   1.000
    C92     C    0.02933   0.70004   0.69982   1.000
    C93     C    0.70015   0.70051   0.02872   1.000
    C94     C    0.57082   0.02905   0.70020   1.000
    C95     C    0.02892   0.57100   0.70000   1.000
    C96     C    0.70027   0.70022   0.57070   1.000
    O97     O    0.61394   0.49232   0.87335   1.000
    O98     O    0.49215   0.61382   0.02060   1.000
    O99     O    0.87362   0.02011   0.61422   1.000
    O100    O    0.02083   0.87332   0.49200   1.000
    O101    O    0.61378   0.87349   0.02066   1.000
    O102    O    0.49220   0.02087   0.87325   1.000
    O103    O    0.87340   0.61390   0.49210   1.000
    O104    O    0.02085   0.49225   0.61366   1.000
    O105    O    0.61369   0.02056   0.49257   1.000
    O106    O    0.49250   0.87309   0.61345   1.000
    O107    O    0.87314   0.49291   0.02046   1.000
    O108    O    0.02092   0.61373   0.87318   1.000
    O109    O    0.50746   0.38632   0.12688   1.000
    O110    O    0.38641   0.50739   0.97921   1.000
    O111    O    0.97881   0.12678   0.38655   1.000
    O112    O    0.12674   0.97978   0.50720   1.000
    O113    O    0.12637   0.38581   0.97965   1.000
    O114    O    0.97946   0.50765   0.12672   1.000
    O115    O    0.38604   0.12656   0.50805   1.000
    O116    O    0.50779   0.97963   0.38598   1.000
    O117    O    0.97900   0.38622   0.50802   1.000
    O118    O    0.12669   0.50754   0.38625   1.000
    O119    O    0.50764   0.12666   0.97942   1.000
    O120    O    0.38624   0.97891   0.12660   1.000
    O121    O    0.38603   0.50763   0.12664   1.000
    O122    O    0.50787   0.38608   0.97939   1.000
    O123    O    0.12637   0.97986   0.38580   1.000
    O124    O    0.97918   0.12664   0.50790   1.000
    O125    O    0.38610   0.12645   0.97939   1.000
    O126    O    0.50776   0.97911   0.12675   1.000
    O127    O    0.12658   0.38609   0.50780   1.000
    O128    O    0.97910   0.50770   0.38639   1.000
    O129    O    0.38630   0.97944   0.50740   1.000
    O130    O    0.50746   0.12688   0.38659   1.000
    O131    O    0.12685   0.50713   0.97955   1.000
    O132    O    0.97902   0.38630   0.12683   1.000
    O133    O    0.49252   0.61365   0.87311   1.000
    O134    O    0.61362   0.49252   0.02076   1.000
    O135    O    0.02117   0.87319   0.61343   1.000
    O136    O    0.87326   0.02016   0.49283   1.000
    O137    O    0.87357   0.61424   0.02038   1.000
    O138    O    0.02051   0.49236   0.87330   1.000
    O139    O    0.61393   0.87342   0.49199   1.000
    O140    O    0.49221   0.02033   0.61401   1.000
    O141    O    0.02099   0.61371   0.49202   1.000
    O142    O    0.87329   0.49244   0.61372   1.000
    O143    O    0.49228   0.87329   0.02055   1.000
    O144    O    0.61373   0.02100   0.87337   1.000
loop_
    _geom_bond_atom_site_label_1
    _geom_bond_atom_site_label_2
    _geom_bond_distance
    _geom_bond_site_symmetry_2
    _ccdc_geom_bond_type
    O137   C59       1.27849      .   S
    O107   C59       1.27869      .   S
    O143   C53       1.27867      .   S
    O98    C50       1.27875      .   S
    O101   C53       1.27861      .   S
    O134   C50       1.27857      .   S
    C59    C43       1.49533      .   S
    C53    C45       1.49510      .   S
    C50    C40       1.49499      .   S
    H5     C91       1.08746      .   S
    H2     C93       1.08692      .   S
    H11    C88       1.08759      .   S
    C43    C91       1.39951      .   S
    C43    C93       1.39953      .   S
    C91    C40       1.39944      .   S
    C40    C88       1.39942      .   S
    C93    C45       1.39970      .   S
    C45    C88       1.39954      .   S
    O120   C72       1.27950      .   S
    O121   C61       1.27860      .   S
    O114   C66       1.27891      .   S
    O126   C72       1.27862      .   S
    O132   C66       1.27400      .   S
    O132   Cu0       0.96296      .   S
    O109   C61       1.27866      .   S
    C66    C34       1.50018      .   S
    C66    Cu0       1.00813      .   S
    C72    C32       1.49499      .   S
    C61    C27       1.49570      .   S
    C32    C80       1.39960      .   S
    C32    C83       1.39955      .   S
    C27    C77       1.39973      .   S
    C27    C75       1.39955      .   S
    C34    C82       1.39954      .   S
    C34    C74       1.39951      .   S
    H20    C80       1.08754      .   S
    H19    C77       1.08752      .   S
    H16    C83       1.08753      .   S
    H15    C82       1.08749      .   S
    H21    C74       1.08807      .   S
    H22    C75       1.08751      .   S
    C80    C25       1.39945      .   S
    C83    C35       1.39926      .   S
    C77    C29       1.39972      .   S
    C82    C30       1.39950      .   S
    C75    C36       1.39965      .   S
    C74    C26       1.39959      .   S
    C25    C73       1.39939      .   S
    C25    C64       1.49487      .   S
    C35    C73       1.39933      .   S
    C35    C68       1.49471      .   S
    O123   C64       1.27854      .   S
    O116   C68       1.27856      .   S
    C29    C84       1.39971      .   S
    C29    C70       1.49583      .   S
    C30    C78       1.39944      .   S
    C30    C69       1.49524      .   S
    O118   C70       1.27867      .   S
    C36    C84       1.39978      .   S
    C36    C67       1.49553      .   S
    C26    C78       1.39948      .   S
    C26    C63       1.49496      .   S
    O128   C69       1.27860      .   S
    O111   C63       1.27858      .   S
    O130   C67       1.27870      .   S
    C73    H24       1.08738      .   S
    C84    H13       1.08758      .   S
    C78    H18       1.08764      .   S
    C64    O112      1.27868      .   S
    C68    O129      1.27864      .   S
    C70    O127      1.27770      .   S
    C69    O117      1.27856      .   S
    C63    O124      1.27739      .   S
    C67    O115      1.27852      .   S
    O139   C58       1.27859      .   S
    O100   C52       1.27863      .   S
    O141   C56       1.27859      .   S
    O103   C55       1.27779      .   S
    O105   C57       1.27869      .   S
    O136   C51       1.27373      .   S
    H12    C85       1.08759      .   S
    H1     C96       1.08729      .   S
    H6     C90       1.08749      .   S
    C52    O135      1.27854      .   S
    C52    C37       1.49496      .   S
    C58    O106      1.27869      .   S
    C58    C41       1.49548      .   S
    C55    O142      1.27916      .   S
    C55    C48       1.49617      .   S
    C56    O104      1.27858      .   S
    C56    C47       1.49514      .   S
    C51    O99       1.28351      .   S
    C51    C38       1.49492      .   S
    C57    O140      1.27856      .   S
    C57    C42       1.49458      .   S
    C85    C37       1.39957      .   S
    C85    C47       1.39944      .   S
    C96    C41       1.39988      .   S
    C96    C48       1.39982      .   S
    C90    C42       1.39929      .   S
    C90    C38       1.39926      .   S
    C37    C92       1.39953      .   S
    C41    C89       1.39965      .   S
    C47    C95       1.39961      .   S
    C48    C87       1.39976      .   S
    C42    C94       1.39920      .   S
    C38    C86       1.39955      .   S
    C92    H8        1.08745      .   S
    C92    C44       1.39947      .   S
    C89    H7        1.08755      .   S
    C89    C39       1.39954      .   S
    C95    H4        1.08750      .   S
    C95    C44       1.39951      .   S
    C87    H10       1.08756      .   S
    C87    C39       1.39972      .   S
    C94    H3        1.08754      .   S
    C94    C46       1.39978      .   S
    C86    H9        1.08752      .   S
    C86    C46       1.39961      .   S
    C44    C60       1.49534      .   S
    C39    C49       1.49574      .   S
    C49    O133      1.27868      .   S
    C49    O97       1.27855      .   S
    C60    O108      1.27867      .   S
    C60    O138      1.27858      .   S
    C54    O102      1.27861      .   S
    C54    O144      1.27859      .   S
    C79    C31       1.39958      .   S
    C79    C28       1.39939      .   S
    C79    H17       1.08752      .   S
    C31    C81       1.39975      .   S
    C31    C71       1.49516      .   S
    C81    C33       1.39956      .   S
    C81    H14       1.08761      .   S
    C28    C76       1.39937      .   S
    C28    C62       1.49501      .   S
    C76    C33       1.39954      .   S
    C76    H23       1.08740      .   S
    C33    C65       1.49530      .   S
    C62    O110      1.27857      .   S
    C62    O122      1.27856      .   S
    C71    O125      1.27851      .   S
    C71    O119      1.27869      .   S
    C65    O131      1.27867      .   S
    C65    O113      1.27852      .   S
    O114   Cu0       1.49945      .   S
