# CIF file generated by openbabel 2.4.90, see http://openbabel.sf.net
data_I
_chemical_name_common ''
_cell_length_a 18.743
_cell_length_b 18.765
_cell_length_c 18.762
_cell_angle_alpha 59.98
_cell_angle_beta 60.083
_cell_angle_gamma 60.109
_space_group_name_H-M_alt 'P 1'
_space_group_name_Hall 'P 1'
loop_
    _symmetry_equiv_pos_as_xyz
    x,y,z
loop_
    _atom_site_label
    _atom_site_type_symbol
    _atom_site_fract_x
    _atom_site_fract_y
    _atom_site_fract_z
    _atom_site_occupancy
    Cu0     Cu   0.00023   0.56534   0.99996   1.000
    Cu1     Cu   0.43460   0.99982   0.56541   1.000
    Cu2     Cu   0.56537   0.43465   0.00013   1.000
    Cu3     Cu   0.99977   0.00006   0.43460   1.000
    Cu4     Cu   0.43461   0.56530   0.99980   1.000
    Cu5     Cu   0.00020   0.99991   0.56538   1.000
    Cu6     Cu   0.56539   0.00009   0.80000   1.000
    Cu7     Cu   0.99991   0.43459   0.56500   1.000
    Cu8     Cu   0.43452   0.99988   0.99996   1.000
    Cu9     Cu   0.00004   0.56538   0.43451   1.000
    Cu10    Cu   0.56537   0.00017   0.43460   1.000
loop_
    _geom_bond_atom_site_label_1
    _geom_bond_atom_site_label_2
    _geom_bond_distance
    _geom_bond_site_symmetry_2
    _ccdc_geom_bond_type
    Cu10   Cu1       2.45574  1_545   S
    Cu2    Cu4       2.45544  1_554   S
    Cu3    Cu5       2.45631  1_645   S
    Cu7    Cu9       2.45054  1_655   S
