# CIF file generated by openbabel 2.4.90, see http://openbabel.sf.net
data_I
_chemical_name_common ''
_cell_length_a 18.743
_cell_length_b 18.765
_cell_length_c 18.762
_cell_angle_alpha 59.98
_cell_angle_beta 60.083
_cell_angle_gamma 60.109
_space_group_name_H-M_alt 'P 1'
_space_group_name_Hall 'P 1'
loop_
    _symmetry_equiv_pos_as_xyz
    x,y,z
loop_
    _atom_site_label
    _atom_site_type_symbol
    _atom_site_fract_x
    _atom_site_fract_y
    _atom_site_fract_z
    _atom_site_occupancy
    N0      N    0.65851   0.65838   0.65815   1.000
    N1      N    0.67829   0.02549   0.61808   1.000
    N2      N    0.65831   0.65865   0.02490   1.000
    N3      N    0.02529   0.65831   0.65812   1.000
    N4      N    0.55855   0.02193   0.86115   1.000
    N5      N    0.34146   0.34159   0.34184   1.000
    N6      N    0.34165   0.34130   0.97512   1.000
    N7      N    0.97467   0.34166   0.34188   1.000
    N8      N    0.34166   0.97507   0.34140   1.000
    Zr9     Zr   0.99998   0.49998   0.49976   1.000
    Zr10    Zr   0.43452   0.99988   0.99996   1.000
    O11     O    0.40527   0.99106   0.10115   1.000
    O12     O    0.49769   0.89875   0.00877   1.000
    O13     O    0.47274   0.00802   0.94942   1.000
    O14     O    0.40525   0.10106   0.99118   1.000
    Zr15    Zr   0.56539   0.00009   0.80000   1.000
    O16     O    0.59968   0.01006   0.74743   1.000
    Zr17    Zr   0.49999   1.00000   0.50001   1.000
    Zr18    Zr   0.49999   0.49997   0.99997   1.000
    Zr19    Zr   0.99998   0.99999   0.49999   1.000
    Zr20    Zr   0.00023   0.56534   0.99996   1.000
    O21     O    0.99125   0.50221   0.10128   1.000
    O22     O    0.89892   0.59478   0.00875   1.000
    O23     O    0.00908   0.59464   0.89865   1.000
    O24     O    0.10142   0.50206   0.99120   1.000
    O25     O    0.45380   0.45365   0.99117   1.000
    O26     O    0.90374   0.00888   0.53620   1.000
    O27     O    0.00894   0.89873   0.54611   1.000
    O28     O    0.99103   0.10125   0.45387   1.000
    O29     O    0.10122   0.99124   0.45366   1.000
    O30     O    0.54618   0.54629   0.00879   1.000
    O31     O    0.55118   0.00892   0.53618   1.000
    O32     O    0.00892   0.54619   0.54598   1.000
    O33     O    0.56075   0.00825   0.82331   1.000
    O34     O    0.45370   0.10124   0.45388   1.000
    O35     O    0.10118   0.45374   0.45368   1.000
    O36     O    0.45370   0.45375   0.10128   1.000
    O37     O    0.99103   0.45377   0.45372   1.000
    O38     O    0.54627   0.89875   0.54613   1.000
    O39     O    0.89878   0.54623   0.54600   1.000
    O40     O    0.54628   0.54620   0.89867   1.000
    O41     O    0.45379   0.99121   0.45369   1.000
loop_
    _geom_bond_atom_site_label_1
    _geom_bond_atom_site_label_2
    _geom_bond_distance
    _geom_bond_site_symmetry_2
    _ccdc_geom_bond_type
    Zr10   O11       1.63402  1_556   S
    N8     O11       3.93342      .   S
    Zr10   O12       1.63476  1_556   S
    N2     O12       3.93443      .   S
    Zr10   O13       0.84983  1_565   S
    N4     O13       1.65129      .   S
    Zr10   O14       1.63456  1_565   S
    N6     O14       3.93429      .   S
    Zr15   O16       0.85073      .   S
    N1     O16       2.07363      .   S
    Zr20   O21       1.63456  1_456   S
    N7     O21       3.93390      .   S
    Zr20   O22       1.63449  1_456   S
    N2     O22       3.93437      .   S
    Zr20   O23       1.63507      .   S
    N3     O23       3.93510      .   S
    Zr20   O24       1.63508      .   S
    N6     O24       3.93481      .   S
    N6     O25       3.82587      .   S
    Zr18   O25       1.60265      .   S
    Zr19   O26       1.52784  1_565   S
    N1     O26       3.60627      .   S
    Zr19   O27       1.60291  1_655   S
    N3     O27       3.82632      .   S
    Zr19   O28       1.60288  1_565   S
    N7     O28       3.82629      .   S
    Zr19   O29       1.60316  1_655   S
    N8     O29       3.82690      .   S
    N2     O30       3.82634      .   S
    Zr18   O30       1.60291  1_556   S
    N1     O31       3.60553      .   S
    Zr17   O31       1.52753  1_565   S
    N3     O32       3.82932      .   S
    Zr9    O32       1.60456  1_655   S
    N4     O33       0.84518      .   S
    Zr15   O33       0.48789      .   S
    N5     O34       3.82805      .   S
    Zr17   O34       1.60367  1_565   S
    N5     O35       3.82886      .   S
    Zr9    O35       1.60395  1_655   S
    N5     O36       3.82920      .   S
    Zr18   O36       1.60427  1_556   S
    N7     O37       3.82430      .   S
    Zr9    O37       1.60149      .   S
    N0     O38       3.82820      .   S
    Zr17   O38       1.60377      .   S
    N0     O39       3.83008      .   S
    Zr9    O39       1.60459      .   S
    N0     O40       3.82879      .   S
    Zr18   O40       1.60401      .   S
    Zr17   O41       1.60266      .   S
    N8     O41       3.82583      .   S
