# CIF file generated by openbabel 2.4.90, see http://openbabel.sf.net
data_I
_chemical_name_common ''
_cell_length_a 18.743
_cell_length_b 18.765
_cell_length_c 18.762
_cell_angle_alpha 59.98
_cell_angle_beta 60.083
_cell_angle_gamma 60.109
_space_group_name_H-M_alt 'P 1'
_space_group_name_Hall 'P 1'
loop_
    _symmetry_equiv_pos_as_xyz
    x,y,z
loop_
    _atom_site_label
    _atom_site_type_symbol
    _atom_site_fract_x
    _atom_site_fract_y
    _atom_site_fract_z
    _atom_site_occupancy
    Zr0     Zr   0.56537   0.00017   0.43460   1.000
    Zr1     Zr   0.00023   0.56534   0.99996   1.000
    Zr2     Zr   0.43460   0.99982   0.56541   1.000
    Zr3     Zr   0.99971   0.43470   0.10000   1.000
    Zr4     Zr   0.56537   0.43465   0.00013   1.000
    Zr5     Zr   0.99977   0.00006   0.43460   1.000
    Zr6     Zr   0.43461   0.56530   0.99980   1.000
    Zr7     Zr   0.00020   0.99991   0.56538   1.000
    Zr8     Zr   0.56539   0.00009   0.80000   1.000
    Zr9     Zr   0.99991   0.43459   0.56500   1.000
    Zr10    Zr   0.43452   0.99988   0.99996   1.000
    Zr11    Zr   0.00004   0.56538   0.43451   1.000
    O12     O    0.49999   1.00000   0.50001   1.000
    O13     O    0.49999   0.49998   0.99997   1.000
    O14     O    0.99998   0.99999   0.49999   1.000
    O15     O    0.99998   0.49998   0.49975   1.000
    N16     N    0.65851   0.65838   0.65815   1.000
    O17     O    0.62409   0.56093   0.79745   1.000
    O18     O    0.79762   0.62401   0.56073   1.000
    O19     O    0.56103   0.79742   0.62379   1.000
    O20     O    0.56104   0.62393   0.79730   1.000
    O21     O    0.62408   0.79759   0.56072   1.000
    O22     O    0.79756   0.56094   0.62376   1.000
    N23     N    0.67829   0.02549   0.61808   1.000
    O24     O    0.63398   0.02003   0.69487   1.000
    O25     O    0.80760   0.01775   0.60394   1.000
    O26     O    0.63391   0.01793   0.54083   1.000
    O27     O    0.80740   0.01780   0.54090   1.000
    O28     O    0.57085   0.01778   0.60389   1.000
    N29     N    0.65831   0.65865   0.02490   1.000
    O30     O    0.56085   0.62411   0.01755   1.000
    O31     O    0.62391   0.56112   0.01767   1.000
    O32     O    0.79761   0.62422   0.01753   1.000
    O33     O    0.56086   0.79762   0.01758   1.000
    N34     N    0.02529   0.65831   0.65812   1.000
    O35     O    0.01780   0.79750   0.56071   1.000
    O36     O    0.01784   0.56086   0.62372   1.000
    O37     O    0.01793   0.62393   0.79734   1.000
    O38     O    0.01799   0.79743   0.62376   1.000
    O39     O    0.01790   0.62393   0.56069   1.000
    N40     N    0.55855   0.02193   0.86115   1.000
    O41     O    0.56305   0.01697   0.83978   1.000
    O42     O    0.54367   0.01620   0.84889   1.000
    O43     O    0.51096   0.01615   0.89888   1.000
    O44     O    0.57406   0.01624   0.84892   1.000
    N45     N    0.34146   0.34159   0.34184   1.000
    O46     O    0.43894   0.37603   0.20267   1.000
    O47     O    0.37589   0.20239   0.43928   1.000
    O48     O    0.20241   0.43902   0.37611   1.000
    O49     O    0.37589   0.43903   0.20253   1.000
    O50     O    0.20235   0.37596   0.43912   1.000
    O51     O    0.43894   0.20256   0.37622   1.000
    N52     N    0.34165   0.34130   0.97512   1.000
    O53     O    0.37608   0.43883   0.98231   1.000
    O54     O    0.43914   0.37583   0.98244   1.000
    O55     O    0.37598   0.20224   0.98240   1.000
    O56     O    0.20260   0.43877   0.98244   1.000
    N57     N    0.97467   0.34166   0.34188   1.000
    O58     O    0.98132   0.38706   0.23669   1.000
    O59     O    0.98198   0.20254   0.37623   1.000
    O60     O    0.98226   0.43908   0.20261   1.000
    O61     O    0.98213   0.40642   0.22762   1.000
    O62     O    0.98206   0.37603   0.43919   1.000
    O63     O    0.98218   0.20247   0.43926   1.000
    O64     O    0.98212   0.43910   0.37616   1.000
    O65     O    0.98202   0.37608   0.22765   1.000
    N66     N    0.34166   0.97507   0.34140   1.000
    O67     O    0.20256   0.98246   0.43884   1.000
    O68     O    0.43912   0.98248   0.37584   1.000
    O69     O    0.37602   0.98223   0.20234   1.000
    O70     O    0.20236   0.98251   0.37580   1.000
    O71     O    0.37605   0.98235   0.43890   1.000
loop_
    _geom_bond_atom_site_label_1
    _geom_bond_atom_site_label_2
    _geom_bond_distance
    _geom_bond_site_symmetry_2
    _ccdc_geom_bond_type
    Zr0    O12       1.22787  1_545   S
    Zr2    O12       1.22787      .   S
    Zr4    O13       1.22772  1_554   S
    Zr6    O13       1.22772      .   S
    Zr5    O14       1.22816  1_545   S
    Zr7    O14       1.22816  1_455   S
    Zr9    O15       1.22527      .   S
    Zr11   O15       1.22527  1_455   S
    N16    O17       2.30268      .   S
    Zr4    O17       3.27040  1_554   S
    N16    O18       2.30316      .   S
    Zr11   O18       3.27073  1_455   S
    N16    O19       2.30253      .   S
    Zr2    O19       3.27057      .   S
    N16    O20       2.30269      .   S
    Zr6    O20       3.27043      .   S
    N16    O21       2.30224      .   S
    Zr0    O21       3.26937  1_545   S
    N16    O22       2.30325      .   S
    Zr9    O22       3.27167      .   S
    N23    O24       1.23267      .   S
    Zr8    O24       1.70145      .   S
    N23    O25       2.23881      .   S
    Zr7    O25       3.17803  1_465   S
    N23    O26       2.08282      .   S
    Zr0    O26       3.06244      .   S
    N23    O27       2.08319      .   S
    Zr5    O27       3.06330      .   S
    N23    O28       2.23834      .   S
    Zr2    O28       3.17756  1_565   S
    N29    O30       2.30158      .   S
    Zr6    O30       3.26841  1_556   S
    N29    O31       2.30125      .   S
    Zr4    O31       3.26810      .   S
    N29    O32       2.30244      .   S
    Zr1    O32       3.26898  1_456   S
    N29    O33       2.30217      .   S
    Zr10   O33       3.26951  1_556   S
    N34    O35       2.30124      .   S
    Zr5    O35       3.26786  1_645   S
    N34    O36       2.30327      .   S
    Zr9    O36       3.27366  1_655   S
    N34    O37       2.30252      .   S
    Zr1    O37       3.27015      .   S
    N34    O38       2.30161      .   S
    Zr7    O38       3.26879      .   S
    N34    O39       2.30181      .   S
    Zr11   O39       3.26859      .   S
    N40    O41       0.41507      .   S
    Zr8    O41       0.92167      .   S
    N40    O42       0.51073      .   S
    Zr8    O42       0.93853      .   S
    N40    O43       0.83568      .   S
    Zr10   O43       1.69966  1_565   S
    N40    O44       0.27494      .   S
    Zr8    O44       1.19858      .   S
    N45    O46       2.30287      .   S
    Zr4    O46       3.27096      .   S
    N45    O47       2.30223      .   S
    Zr2    O47       3.26921  1_565   S
    N45    O48       2.30305      .   S
    Zr11   O48       3.27101      .   S
    N45    O49       2.30279      .   S
    Zr6    O49       3.27090  1_556   S
    N45    O50       2.30223      .   S
    Zr9    O50       3.26891  1_655   S
    N45    O51       2.30245      .   S
    Zr0    O51       3.27035      .   S
    N52    O53       2.30099      .   S
    Zr6    O53       3.26759      .   S
    N52    O54       2.30142      .   S
    Zr4    O54       3.26790  1_554   S
    N52    O55       2.30224      .   S
    Zr10   O55       3.26913  1_565   S
    N52    O56       2.30215      .   S
    Zr1    O56       3.27015      .   S
    N57    O58       1.67760      .   S
    Zr3    O58       2.15089      .   S
    N57    O59       2.30163      .   S
    Zr5    O59       3.26874      .   S
    N57    O60       2.30183      .   S
    Zr1    O60       3.26913  1_456   S
    N57    O61       1.83181      .   S
    Zr3    O61       2.05892      .   S
    N57    O62       2.29970      .   S
    Zr9    O62       3.26189      .   S
    N57    O63       2.30114      .   S
    Zr7    O63       3.26783  1_465   S
    N57    O64       2.30162      .   S
    Zr11   O64       3.26833  1_455   S
    N57    O65       1.85435      .   S
    Zr3    O65       1.99773      .   S
    N66    O67       2.30163      .   S
    Zr7    O67       3.26916      .   S
    N66    O68       2.30114      .   S
    Zr0    O68       3.26745  1_545   S
    N66    O69       2.30195      .   S
    Zr10   O69       3.26803  1_556   S
    N66    O70       2.30176      .   S
    Zr5    O70       3.26844  1_645   S
    N66    O71       2.30115      .   S
    Zr2    O71       3.26813      .   S
