# CIF file generated by openbabel 2.4.90, see http://openbabel.sf.net
data_I
_chemical_name_common ''
_cell_length_a 18.743
_cell_length_b 18.765
_cell_length_c 18.762
_cell_angle_alpha 59.98
_cell_angle_beta 60.083
_cell_angle_gamma 60.109
_space_group_name_H-M_alt 'P 1'
_space_group_name_Hall 'P 1'
loop_
    _symmetry_equiv_pos_as_xyz
    x,y,z
loop_
    _atom_site_label
    _atom_site_type_symbol
    _atom_site_fract_x
    _atom_site_fract_y
    _atom_site_fract_z
    _atom_site_occupancy
    N0      N    0.65851   0.65838   0.65815   1.000
    N1      N    0.67829   0.02549   0.61808   1.000
    N2      N    0.65831   0.65865   0.02490   1.000
    N3      N    0.02529   0.65831   0.65812   1.000
    N4      N    0.55855   0.02193   0.86115   1.000
    N5      N    0.34146   0.34159   0.34184   1.000
    N6      N    0.34165   0.34130   0.97512   1.000
    N7      N    0.97467   0.34166   0.34188   1.000
    N8      N    0.34166   0.97507   0.34140   1.000
    Zr9     Zr   0.99998   0.49998   0.49976   1.000
    O10     O    0.99105   0.46954   0.43796   1.000
    O11     O    0.00894   0.56196   0.53022   1.000
    O12     O    0.89880   0.56200   0.53024   1.000
    O13     O    0.10120   0.46950   0.43793   1.000
    O14     O    0.99102   0.43801   0.46947   1.000
    O15     O    0.10117   0.43797   0.46944   1.000
    O16     O    0.00891   0.53042   0.56174   1.000
    O17     O    0.89877   0.53046   0.56176   1.000
    Zr18    Zr   0.43452   0.99988   0.99996   1.000
    O19     O    0.40527   0.99106   0.10115   1.000
    O20     O    0.49769   0.89875   0.00877   1.000
    O21     O    0.47274   0.00802   0.94942   1.000
    O22     O    0.40525   0.10106   0.99118   1.000
    Zr23    Zr   0.56539   0.00009   0.80000   1.000
    O24     O    0.55453   0.00815   0.82444   1.000
    O25     O    0.56422   0.00853   0.81989   1.000
    O26     O    0.56972   0.00816   0.82446   1.000
    O27     O    0.59968   0.01006   0.74743   1.000
    Zr28    Zr   0.49999   1.00000   0.50001   1.000
    O29     O    0.46955   0.99124   0.43792   1.000
    O30     O    0.46946   0.10128   0.43811   1.000
    O31     O    0.56695   0.00896   0.52042   1.000
    O32     O    0.56203   0.89879   0.53036   1.000
    O33     O    0.43802   0.99117   0.46945   1.000
    O34     O    0.43794   0.10119   0.46964   1.000
    O35     O    0.53542   0.00889   0.55195   1.000
    O36     O    0.53051   0.89871   0.56190   1.000
    Zr37    Zr   0.49999   0.49997   0.99997   1.000
    O38     O    0.43794   0.46950   0.10125   1.000
    O39     O    0.53042   0.56204   0.00876   1.000
    O40     O    0.43804   0.46940   0.99114   1.000
    O41     O    0.53052   0.56195   0.89863   1.000
    O42     O    0.56195   0.53055   0.00882   1.000
    O43     O    0.46956   0.43790   0.99120   1.000
    O44     O    0.46947   0.43800   0.10132   1.000
    O45     O    0.56204   0.53045   0.89871   1.000
    Zr46    Zr   0.99998   0.99999   0.49999   1.000
    O47     O    0.10117   0.99125   0.43789   1.000
    O48     O    0.90369   0.00889   0.52044   1.000
    O49     O    0.00889   0.89874   0.53035   1.000
    O50     O    0.99098   0.10126   0.43811   1.000
    O51     O    0.99108   0.10123   0.46962   1.000
    O52     O    0.10127   0.99122   0.46942   1.000
    O53     O    0.90379   0.00887   0.55196   1.000
    O54     O    0.00899   0.89871   0.56188   1.000
    Zr55    Zr   0.99971   0.43470   0.10000   1.000
    O56     O    0.99086   0.40539   0.16382   1.000
    O57     O    0.99092   0.42056   0.16381   1.000
    O58     O    0.99051   0.41088   0.16834   1.000
    Zr59    Zr   0.00023   0.56534   0.99996   1.000
    O60     O    0.99125   0.50221   0.10128   1.000
    O61     O    0.89892   0.59478   0.00875   1.000
    O62     O    0.00908   0.59464   0.89865   1.000
    O63     O    0.10142   0.50206   0.99120   1.000
loop_
    _geom_bond_atom_site_label_1
    _geom_bond_atom_site_label_2
    _geom_bond_distance
    _geom_bond_site_symmetry_2
    _ccdc_geom_bond_type
    Zr9    O10       1.62790      .   S
    N7     O10       3.83628      .   S
    Zr9    O11       1.63190  1_655   S
    N3     O11       3.84036      .   S
    Zr9    O12       1.63163      .   S
    N0     O12       3.84145      .   S
    Zr9    O13       1.63063  1_655   S
    N5     O13       3.84051      .   S
    Zr9    O14       1.62921      .   S
    N7     O14       3.83515      .   S
    Zr9    O15       1.63129  1_655   S
    N5     O15       3.83999      .   S
    Zr9    O16       1.63123  1_655   S
    N3     O16       3.84108      .   S
    Zr9    O17       1.63157      .   S
    N0     O17       3.84150      .   S
    Zr18   O19       1.63402  1_556   S
    N8     O19       3.93342      .   S
    Zr18   O20       1.63476  1_556   S
    N2     O20       3.93443      .   S
    Zr18   O21       0.84983  1_565   S
    N4     O21       1.65129      .   S
    Zr18   O22       1.63456  1_565   S
    N6     O22       3.93429      .   S
    Zr23   O24       0.46927      .   S
    N4     O24       0.89234      .   S
    Zr23   O25       0.46083      .   S
    N4     O25       0.87169      .   S
    Zr23   O26       0.59929      .   S
    N4     O26       0.75147      .   S
    Zr23   O27       0.85073      .   S
    N1     O27       2.07363      .   S
    Zr28   O29       1.62992      .   S
    N8     O29       3.83720      .   S
    Zr28   O30       1.63049  1_565   S
    N5     O30       3.83963      .   S
    Zr28   O31       1.58259  1_565   S
    N1     O31       3.58271      .   S
    Zr28   O32       1.63113      .   S
    N0     O32       3.83947      .   S
    Zr28   O33       1.62962      .   S
    N8     O33       3.83733      .   S
    Zr28   O34       1.63104  1_565   S
    N5     O34       3.83933      .   S
    Zr28   O35       1.52885  1_565   S
    N1     O35       3.65227      .   S
    Zr28   O36       1.63059      .   S
    N0     O36       3.83978      .   S
    Zr37   O38       1.63146  1_556   S
    N5     O38       3.84056      .   S
    Zr37   O39       1.63001  1_556   S
    N2     O39       3.83782      .   S
    Zr37   O40       1.62972      .   S
    N6     O40       3.83725      .   S
    Zr37   O41       1.63099      .   S
    N0     O41       3.84026      .   S
    Zr37   O42       1.63000  1_556   S
    N2     O42       3.83773      .   S
    Zr37   O43       1.62978      .   S
    N6     O43       3.83736      .   S
    Zr37   O44       1.63123  1_556   S
    N5     O44       3.84068      .   S
    Zr37   O45       1.63118      .   S
    N0     O45       3.84017      .   S
    Zr46   O47       1.63046  1_655   S
    N8     O47       3.83827      .   S
    Zr46   O48       1.58278  1_565   S
    N1     O48       3.58349      .   S
    Zr46   O49       1.63023  1_655   S
    N3     O49       3.83761      .   S
    Zr46   O50       1.62977  1_565   S
    N7     O50       3.83787      .   S
    Zr46   O51       1.63017  1_565   S
    N7     O51       3.83756      .   S
    Zr46   O52       1.63007  1_655   S
    N8     O52       3.83839      .   S
    Zr46   O53       1.52928  1_565   S
    N1     O53       3.65297      .   S
    Zr46   O54       1.62981  1_655   S
    N3     O54       3.83790      .   S
    Zr55   O56       0.99886      .   S
    N7     O56       2.83464      .   S
    Zr55   O57       1.02946      .   S
    N7     O57       2.81631      .   S
    Zr55   O58       1.07545      .   S
    N7     O58       2.75031      .   S
    Zr59   O60       1.63456  1_456   S
    N7     O60       3.93390      .   S
    Zr59   O61       1.63449  1_456   S
    N2     O61       3.93437      .   S
    Zr59   O62       1.63507      .   S
    N3     O62       3.93510      .   S
    Zr59   O63       1.63508      .   S
    N6     O63       3.93481      .   S
