# CIF file generated by openbabel 2.4.90, see http://openbabel.sf.net
data_I
_chemical_name_common ''
_cell_length_a 15.339
_cell_length_b 15.305
_cell_length_c 15.334
_cell_angle_alpha 102.202
_cell_angle_beta 102.574
_cell_angle_gamma 102.334
_space_group_name_H-M_alt 'P 1'
_space_group_name_Hall 'P 1'
loop_
    _symmetry_equiv_pos_as_xyz
    x,y,z
loop_
    _atom_site_label
    _atom_site_type_symbol
    _atom_site_fract_x
    _atom_site_fract_y
    _atom_site_fract_z
    _atom_site_occupancy
    H0      H    0.51460   0.70000   0.98460   1.000
    H1      H    0.98532   0.51545   0.70055   1.000
    H2      H    0.70043   0.98529   0.51594   1.000
    H3      H    0.29973   0.48438   0.01563   1.000
    H4      H    0.48413   0.01455   0.29960   1.000
    H5      H    0.01470   0.29966   0.48532   1.000
    H6      H    0.48535   0.29996   0.01532   1.000
    H7      H    0.01468   0.48447   0.29939   1.000
    H8      H    0.29963   0.01482   0.48403   1.000
    H9      H    0.70029   0.51556   0.98436   1.000
    H10     H    0.51580   0.98532   0.70034   1.000
    H11     H    0.98530   0.70025   0.51463   1.000
    H12     H    0.00017   0.25137   0.74899   1.000
    H13     H    0.74777   0.00003   0.25221   1.000
    H14     H    0.74866   0.25171   0.00000   1.000
    H15     H    0.99985   0.74857   0.25098   1.000
    H16     H    0.25218   1.00000   0.74771   1.000
    C17     C    0.38683   0.73377   0.99215   1.000
    C18     C    0.44511   0.67496   0.99131   1.000
    C19     C    0.99254   0.38724   0.73435   1.000
    C20     C    0.99169   0.44572   0.67556   1.000
    C21     C    0.73373   0.99248   0.38793   1.000
    C22     C    0.67518   0.99163   0.44617   1.000
    C23     C    0.26590   0.61244   0.00796   1.000
    C24     C    0.32464   0.55406   0.00889   1.000
    C25     C    0.61208   0.00742   0.26625   1.000
    C26     C    0.55389   0.00824   0.32480   1.000
    C27     C    0.00768   0.26591   0.61332   1.000
    C28     C    0.00838   0.32475   0.55492   1.000
    C29     C    0.61312   0.26616   0.00778   1.000
    C30     C    0.55486   0.32499   0.00864   1.000
    C31     C    0.00747   0.61269   0.26560   1.000
    C32     C    0.00831   0.55421   0.32439   1.000
    C33     C    0.26626   0.00755   0.61200   1.000
    C34     C    0.32484   0.00842   0.55379   1.000
    C35     C    0.73408   0.38748   0.99201   1.000
    C36     C    0.67537   0.44589   0.99110   1.000
    C37     C    0.38787   0.99255   0.73368   1.000
    C38     C    0.44606   0.99169   0.67509   1.000
    C39     C    0.99235   0.73403   0.38664   1.000
    C40     C    0.99163   0.67517   0.44503   1.000
    C41     C    0.41484   0.58453   0.00010   1.000
    C42     C    0.00012   0.29699   0.70338   1.000
    C43     C    0.00000   0.41526   0.58523   1.000
    C44     C    0.99997   0.47457   0.52570   1.000
    C45     C    0.70234   1.00000   0.29766   1.000
    C46     C    0.58467   0.99996   0.41540   1.000
    C47     C    0.52551   0.99998   0.47457   1.000
    C48     C    0.70312   0.29729   0.99997   1.000
    C49     C    0.58517   0.41543   0.99987   1.000
    C50     C    0.52574   0.47467   0.99993   1.000
    C51     C    0.99989   0.70295   0.29650   1.000
    C52     C    1.00000   0.58466   0.41470   1.000
    C53     C    0.00000   0.52535   0.47424   1.000
    C54     C    0.29762   0.00002   0.70227   1.000
    C55     C    0.41533   0.00006   0.58456   1.000
    C56     C    0.47451   0.00003   0.52541   1.000
loop_
    _geom_bond_atom_site_label_1
    _geom_bond_atom_site_label_2
    _geom_bond_distance
    _geom_bond_site_symmetry_2
    _ccdc_geom_bond_type
    C41    C24       1.40785      .   S
    C41    C18       1.40745  1_554   S
    C29    C30       1.39766      .   S
    C29    C48       1.40074  1_554   S
    C23    C24       1.39797      .   S
    C30    H6        1.08793      .   S
    C30    C49       1.40754  1_554   S
    C24    H3        1.08794      .   S
    H15    C51       1.08666      .   S
    H13    C45       1.08750  1_545   S
    C31    C51       1.40080  1_455   S
    C31    C32       1.39819      .   S
    C25    C45       1.40064  1_545   S
    C25    C26       1.39710      .   S
    C51    C39       1.40194      .   S
    C45    C21       1.40066      .   S
    H7     C32       1.08794      .   S
    H4     C26       1.08785      .   S
    C32    C52       1.40736  1_455   S
    C26    C46       1.40833  1_545   S
    C39    C40       1.39790      .   S
    C21    C22       1.39771      .   S
    C52    C40       1.40759      .   S
    C52    C53       1.41705  1_655   S
    C46    C22       1.40789      .   S
    C46    C47       1.41608      .   S
    C40    H11       1.08795      .   S
    C22    H2        1.08794      .   S
    C53    C44       1.21899  1_455   S
    C47    C56       1.21869  1_565   S
    H8     C34       1.08802      .   S
    H5     C28       1.08794      .   S
    C56    C55       1.41596      .   S
    C44    C43       1.41681  1_655   S
    C34    C55       1.40776      .   S
    C34    C33       1.39766      .   S
    C28    C43       1.40765      .   S
    C28    C27       1.39785      .   S
    C55    C38       1.40777  1_545   S
    C43    C20       1.40761  1_455   S
    C33    C54       1.40063      .   S
    C27    C42       1.40087      .   S
    C38    H10       1.08798      .   S
    C38    C37       1.39762      .   S
    C20    H1        1.08792      .   S
    C20    C19       1.39807      .   S
    C54    C37       1.40074  1_545   S
    C54    H16       1.08754  1_545   S
    C42    C19       1.40090  1_455   S
    C42    H12       1.08768      .   S
    H9     C36       1.08796      .   S
    H0     C18       1.08787      .   S
    C36    C35       1.39794      .   S
    C36    C49       1.40769      .   S
    C18    C17       1.39766      .   S
    C35    C48       1.40088      .   S
    C49    C50       1.41626      .   S
    C48    H14       1.08757  1_556   S
