# CIF file generated by openbabel 2.4.90, see http://openbabel.sf.net
data_I
_chemical_name_common ''
_cell_length_a 15.339
_cell_length_b 15.305
_cell_length_c 15.334
_cell_angle_alpha 102.202
_cell_angle_beta 102.574
_cell_angle_gamma 102.334
_space_group_name_H-M_alt 'P 1'
_space_group_name_Hall 'P 1'
loop_
    _symmetry_equiv_pos_as_xyz
    x,y,z
loop_
    _atom_site_label
    _atom_site_type_symbol
    _atom_site_fract_x
    _atom_site_fract_y
    _atom_site_fract_z
    _atom_site_occupancy
    Cu0     Cu   0.98017   0.56814   0.97995   1.000
    Cu1     Cu   0.98049   0.97980   0.56802   1.000
    Cu2     Cu   0.01980   0.43177   0.02000   1.000
    Cu3     Cu   0.43184   0.01989   0.01942   1.000
    Cu4     Cu   0.01948   0.02014   0.43189   1.000
    H5      H    0.51460   0.70000   0.98460   1.000
    H6      H    0.98532   0.51545   0.70055   1.000
    H7      H    0.70043   0.98529   0.51594   1.000
    H8      H    0.29973   0.48438   0.01563   1.000
    H9      H    0.48413   0.01455   0.29960   1.000
    H10     H    0.01470   0.29966   0.48532   1.000
    H11     H    0.48535   0.29996   0.01532   1.000
    H12     H    0.01468   0.48447   0.29939   1.000
    H13     H    0.29963   0.01482   0.48403   1.000
    H14     H    0.70029   0.51556   0.98436   1.000
    H15     H    0.51580   0.98532   0.70034   1.000
    H16     H    0.98530   0.70025   0.51463   1.000
    H17     H    0.00017   0.25137   0.74899   1.000
    H18     H    0.74777   0.00003   0.25221   1.000
    H19     H    0.74866   0.25171   0.00000   1.000
    H20     H    0.99985   0.74857   0.25098   1.000
    H21     H    0.25218   1.00000   0.74771   1.000
    C22     C    0.42320   0.83110   0.98788   1.000
    C23     C    0.38683   0.73377   0.99215   1.000
    C24     C    0.44511   0.67496   0.99131   1.000
    C25     C    0.98838   0.42358   0.83148   1.000
    C26     C    0.99254   0.38724   0.73435   1.000
    C27     C    0.99169   0.44572   0.67556   1.000
    C28     C    0.83108   0.98849   0.42437   1.000
    C29     C    0.73373   0.99248   0.38793   1.000
    C30     C    0.67518   0.99163   0.44617   1.000
    Cu31    Cu   0.56808   0.98003   0.98050   1.000
    C32     C    0.16875   0.57608   0.01217   1.000
    C33     C    0.26590   0.61244   0.00796   1.000
    C34     C    0.32464   0.55406   0.00889   1.000
    C35     C    0.57558   0.01140   0.16888   1.000
    C36     C    0.61208   0.00742   0.26625   1.000
    C37     C    0.55389   0.00824   0.32480   1.000
    C38     C    0.01187   0.16862   0.57697   1.000
    C39     C    0.00768   0.26591   0.61332   1.000
    C40     C    0.00838   0.32475   0.55492   1.000
    C41     C    0.57674   0.16884   0.01208   1.000
    C42     C    0.61312   0.26616   0.00778   1.000
    C43     C    0.55486   0.32499   0.00864   1.000
    C44     C    0.01160   0.57635   0.16847   1.000
    C45     C    0.00747   0.61269   0.26560   1.000
    C46     C    0.00831   0.55421   0.32439   1.000
    C47     C    0.16891   0.01153   0.57553   1.000
    C48     C    0.26626   0.00755   0.61200   1.000
    C49     C    0.32484   0.00842   0.55379   1.000
    C50     C    0.83123   0.42383   0.98782   1.000
    C51     C    0.73408   0.38748   0.99201   1.000
    C52     C    0.67537   0.44589   0.99110   1.000
    C53     C    0.42433   0.98853   0.83105   1.000
    C54     C    0.38787   0.99255   0.73368   1.000
    C55     C    0.44606   0.99169   0.67509   1.000
    C56     C    0.98812   0.83130   0.42299   1.000
    C57     C    0.99235   0.73403   0.38664   1.000
    C58     C    0.99163   0.67517   0.44503   1.000
    C59     C    0.41484   0.58453   0.00010   1.000
    C60     C    0.00012   0.29699   0.70338   1.000
    C61     C    0.00000   0.41526   0.58523   1.000
    C62     C    0.99997   0.47457   0.52570   1.000
    C63     C    0.70234   1.00000   0.29766   1.000
    C64     C    0.58467   0.99996   0.41540   1.000
    C65     C    0.52551   0.99998   0.47457   1.000
    C66     C    0.70312   0.29729   0.99997   1.000
    C67     C    0.58517   0.41543   0.99987   1.000
    C68     C    0.52574   0.47467   0.99993   1.000
    C69     C    0.99989   0.70295   0.29650   1.000
    C70     C    1.00000   0.58466   0.41470   1.000
    C71     C    0.00000   0.52535   0.47424   1.000
    C72     C    0.29762   0.00002   0.70227   1.000
    C73     C    0.41533   0.00006   0.58456   1.000
    C74     C    0.47451   0.00003   0.52541   1.000
    O75     O    0.50172   0.85083   0.97015   1.000
    O76     O    0.37432   0.88731   0.00449   1.000
    O77     O    0.97040   0.50216   0.85103   1.000
    O78     O    0.00523   0.37452   0.88771   1.000
    O79     O    0.85115   0.97011   0.50276   1.000
    O80     O    0.88694   0.00575   0.37544   1.000
    O81     O    0.14899   0.49744   0.03015   1.000
    O82     O    0.11266   0.62518   0.99519   1.000
    O83     O    0.49712   0.02951   0.14876   1.000
    O84     O    0.62451   0.99428   0.11305   1.000
    O85     O    0.02973   0.14914   0.49850   1.000
    O86     O    0.99521   0.11222   0.62579   1.000
    O87     O    0.49820   0.14910   0.02975   1.000
    O88     O    0.62561   0.11262   0.99545   1.000
    O89     O    0.02971   0.49783   0.14894   1.000
    O90     O    0.99457   0.62534   0.11221   1.000
    O91     O    0.14882   0.02980   0.49700   1.000
    O92     O    0.11306   0.99429   0.62447   1.000
    O93     O    0.85096   0.50238   0.96966   1.000
    O94     O    0.88735   0.37478   0.00493   1.000
    O95     O    0.50281   0.97044   0.85118   1.000
    O96     O    0.37538   0.00561   0.88686   1.000
    O97     O    0.97031   0.85080   0.50146   1.000
    O98     O    0.00469   0.88769   0.37413   1.000
loop_
    _geom_bond_atom_site_label_1
    _geom_bond_atom_site_label_2
    _geom_bond_distance
    _geom_bond_site_symmetry_2
    _ccdc_geom_bond_type
    C59    C34       1.40785      .   S
    C59    C24       1.40745  1_554   S
    O76    Cu3       1.97464  1_565   S
    O76    C22       1.27806  1_554   S
    O94    Cu2       1.97371  1_655   S
    O94    C50       1.27832  1_554   S
    C42    C43       1.39766      .   S
    C42    C41       1.49555      .   S
    C42    C66       1.40074  1_554   S
    C33    C34       1.39797      .   S
    C33    C32       1.49572      .   S
    C43    H11       1.08793      .   S
    C43    C67       1.40754  1_554   S
    C34    H8        1.08794      .   S
    C41    O87       1.27965      .   S
    C41    O88       1.27806  1_554   S
    C32    O81       1.27961      .   S
    C32    O82       1.27831  1_554   S
    Cu3    O87       1.97714      .   S
    Cu3    O83       1.97654      .   S
    Cu3    O96       1.97344  1_554   S
    Cu2    O81       1.97730      .   S
    Cu2    O89       1.97812      .   S
    Cu2    O78       1.97489  1_554   S
    O90    C44       1.27814  1_655   S
    O90    Cu0       1.97485  1_554   S
    O84    C35       1.27823  1_565   S
    O84    Cu31      1.97332  1_554   S
    O83    C35       1.27962      .   S
    O89    C44       1.27969      .   S
    C44    C45       1.49584      .   S
    C35    C36       1.49517      .   S
    H20    C69       1.08666      .   S
    H18    C63       1.08750  1_545   S
    C45    C69       1.40080  1_455   S
    C45    C46       1.39819      .   S
    C36    C63       1.40064  1_545   S
    C36    C37       1.39710      .   S
    C69    C57       1.40194      .   S
    C63    C29       1.40066      .   S
    H12    C46       1.08794      .   S
    H9     C37       1.08785      .   S
    C46    C70       1.40736  1_455   S
    C37    C64       1.40833  1_545   S
    O98    C56       1.27804  1_455   S
    O98    Cu4       1.97536  1_565   S
    O80    C28       1.27814  1_545   S
    O80    Cu4       1.97301  1_655   S
    C57    C56       1.49586      .   S
    C57    C58       1.39790      .   S
    C29    C28       1.49533      .   S
    C29    C30       1.39771      .   S
    C70    C58       1.40759      .   S
    C70    C71       1.41705  1_655   S
    C64    C30       1.40789      .   S
    C64    C65       1.41608      .   S
    C56    O97       1.27969      .   S
    C28    O79       1.27965      .   S
    Cu4    O91       1.97607      .   S
    Cu4    O85       1.97762      .   S
    C58    H16       1.08795      .   S
    C30    H7        1.08794      .   S
    C71    C62       1.21899  1_455   S
    C65    C74       1.21869  1_565   S
    H13    C49       1.08802      .   S
    H10    C40       1.08794      .   S
    O91    C47       1.28090      .   S
    O85    C38       1.28008      .   S
    O97    Cu1       1.97763      .   S
    O79    Cu1       1.97657      .   S
    C74    C73       1.41596      .   S
    C62    C61       1.41681  1_655   S
    C49    C73       1.40776      .   S
    C49    C48       1.39766      .   S
    C40    C61       1.40765      .   S
    C40    C39       1.39785      .   S
    Cu1    O92       1.97306  1_655   S
    Cu1    O86       1.97527  1_565   S
    C47    C48       1.49535      .   S
    C47    O92       1.27818  1_545   S
    C38    C39       1.49582      .   S
    C38    O86       1.27798  1_455   S
    C73    C55       1.40777  1_545   S
    C61    C27       1.40761  1_455   S
    C48    C72       1.40063      .   S
    C39    C60       1.40087      .   S
    C55    H15       1.08798      .   S
    C55    C54       1.39762      .   S
    C27    H6        1.08792      .   S
    C27    C26       1.39807      .   S
    C72    C54       1.40074  1_545   S
    C72    H21       1.08754  1_545   S
    C60    C26       1.40090  1_455   S
    C60    H17       1.08768      .   S
    C54    C53       1.49527      .   S
    C26    C25       1.49602      .   S
    C53    O95       1.27963      .   S
    C53    O96       1.27816  1_565   S
    C25    O77       1.27970      .   S
    C25    O78       1.27812  1_655   S
    O77    Cu0       1.97805      .   S
    O95    Cu31      1.97634      .   S
    O93    Cu0       1.97741      .   S
    O93    C50       1.27956      .   S
    O75    Cu31      1.97705      .   S
    O75    C22       1.27965      .   S
    Cu0    O82       1.97390  1_655   S
    Cu31   O88       1.97464  1_565   S
    H14    C52       1.08796      .   S
    H5     C24       1.08787      .   S
    C50    C51       1.49568      .   S
    C22    C23       1.49550      .   S
    C52    C51       1.39794      .   S
    C52    C67       1.40769      .   S
    C24    C23       1.39766      .   S
    C51    C66       1.40088      .   S
    C67    C68       1.41626      .   S
    C66    H19       1.08757  1_556   S
    Cu31   Cu3       2.45534  1_566   S
    Cu0    Cu2       2.45439  1_656   S
    Cu1    Cu4       2.45490  1_665   S
