# CIF file generated by openbabel 2.4.90, see http://openbabel.sf.net
data_I
_chemical_name_common ''
_cell_length_a 15.339
_cell_length_b 15.305
_cell_length_c 15.334
_cell_angle_alpha 102.202
_cell_angle_beta 102.574
_cell_angle_gamma 102.334
_space_group_name_H-M_alt 'P 1'
_space_group_name_Hall 'P 1'
loop_
    _symmetry_equiv_pos_as_xyz
    x,y,z
loop_
    _atom_site_label
    _atom_site_type_symbol
    _atom_site_fract_x
    _atom_site_fract_y
    _atom_site_fract_z
    _atom_site_occupancy
    C0      C    0.42320   0.83110   0.98788   1.000
    C1      C    0.98838   0.42358   0.83148   1.000
    C2      C    0.83108   0.98849   0.42437   1.000
    C3      C    0.16875   0.57608   0.01217   1.000
    C4      C    0.57558   0.01140   0.16888   1.000
    C5      C    0.01187   0.16862   0.57697   1.000
    C6      C    0.57674   0.16884   0.01208   1.000
    C7      C    0.01160   0.57635   0.16847   1.000
    C8      C    0.16891   0.01153   0.57553   1.000
    C9      C    0.83123   0.42383   0.98782   1.000
    C10     C    0.42433   0.98853   0.83105   1.000
    C11     C    0.98812   0.83130   0.42299   1.000
