# CIF file generated by openbabel 2.4.90, see http://openbabel.sf.net
data_I
_chemical_name_common ''
_cell_length_a 15.339
_cell_length_b 15.305
_cell_length_c 15.334
_cell_angle_alpha 102.202
_cell_angle_beta 102.574
_cell_angle_gamma 102.334
_space_group_name_H-M_alt 'P 1'
_space_group_name_Hall 'P 1'
loop_
    _symmetry_equiv_pos_as_xyz
    x,y,z
loop_
    _atom_site_label
    _atom_site_type_symbol
    _atom_site_fract_x
    _atom_site_fract_y
    _atom_site_fract_z
    _atom_site_occupancy
    N0      N    0.49999   0.00000   0.49997   1.000
    N1      N    0.00000   0.49996   0.49997   1.000
    N2      N    0.37881   0.62059   0.00009   1.000
    N3      N    0.63258   0.36791   0.99990   1.000
    Zr4     Zr   0.49996   0.99996   0.99996   1.000
    O5      O    0.44594   0.85074   0.99751   1.000
    O6      O    0.55686   0.14634   0.00244   1.000
    O7      O    0.47650   0.99762   0.82057   1.000
    O8      O    0.52344   0.00233   0.17937   1.000
    Zr9     Zr   0.99999   0.49996   0.99998   1.000
    O10     O    0.00238   0.52360   0.17924   1.000
    O11     O    0.14903   0.55369   0.00253   1.000
    O12     O    0.99761   0.47632   0.82071   1.000
    O13     O    0.85380   0.44337   0.99744   1.000
    Zr14    Zr   0.99999   0.99998   0.49995   1.000
    O15     O    0.99755   0.82064   0.47617   1.000
    O16     O    0.17939   0.00237   0.52341   1.000
    O17     O    0.00244   0.17930   0.52375   1.000
    O18     O    0.82060   0.99761   0.47651   1.000
loop_
    _geom_bond_atom_site_label_1
    _geom_bond_atom_site_label_2
    _geom_bond_distance
    _geom_bond_site_symmetry_2
    _ccdc_geom_bond_type
    Zr4    O5        2.24628      .   S
    N2     O5        3.46357  1_554   S
    Zr4    O6        2.21270  1_566   S
    N3     O6        3.35319  1_556   S
    Zr4    O7        2.68699      .   S
    N0     O7        5.01395  1_545   S
    Zr4    O8        2.68694  1_566   S
    N0     O8        5.01374      .   S
    Zr9    O10       2.68667  1_656   S
    N1     O10       5.01438      .   S
    Zr9    O11       2.24690  1_656   S
    N2     O11       3.46475      .   S
    Zr9    O12       2.68682      .   S
    N1     O12       5.01462  1_455   S
    Zr9    O13       2.21308      .   S
    N3     O13       3.35410      .   S
    Zr14   O15       2.68229      .   S
    N1     O15       5.00532  1_455   S
    Zr14   O16       2.68764  1_665   S
    N0     O16       5.01545      .   S
    Zr14   O17       2.68205  1_665   S
    N1     O17       5.00503      .   S
    Zr14   O18       2.68772      .   S
    N0     O18       5.01565  1_545   S
