# CIF file generated by openbabel 2.4.90, see http://openbabel.sf.net
data_I
_chemical_name_common ''
_cell_length_a 13.642
_cell_length_b 14.788
_cell_length_c 15.137
_cell_angle_alpha 90
_cell_angle_beta 90.001
_cell_angle_gamma 90
_space_group_name_H-M_alt 'P 1'
_space_group_name_Hall 'P 1'
loop_
    _symmetry_equiv_pos_as_xyz
    x,y,z
loop_
    _atom_site_label
    _atom_site_type_symbol
    _atom_site_fract_x
    _atom_site_fract_y
    _atom_site_fract_z
    _atom_site_occupancy
    Zr0     Zr   0.42061   0.30616   0.53959   1.000
    Zr1     Zr   0.92060   0.30612   0.53958   1.000
    Zr2     Zr   0.32941   0.69384   0.03960   1.000
    Zr3     Zr   0.82940   0.69377   0.03951   1.000
    Zr4     Zr   0.07940   0.80612   0.96046   1.000
    Zr5     Zr   0.57940   0.80612   0.96042   1.000
    Zr6     Zr   0.17061   0.19379   0.46049   1.000
    Zr7     Zr   0.67060   0.19383   0.46041   1.000
    N8      N    0.04151   0.45244   0.16311   1.000
    O9      O    0.08758   0.34686   0.28250   1.000
    O10     O    0.99977   0.39931   0.31982   1.000
    O11     O    0.98010   0.56289   0.09700   1.000
    O12     O    0.14081   0.57331   0.11177   1.000
    N13     N    0.79145   0.04751   0.83695   1.000
    O14     O    0.74976   0.10067   0.68022   1.000
    O15     O    0.83755   0.15309   0.71761   1.000
    O16     O    0.73006   0.93703   0.90302   1.000
    O17     O    0.89077   0.92664   0.88828   1.000
    N18     N    0.54143   0.45247   0.16304   1.000
    O19     O    0.48006   0.56294   0.09699   1.000
    O20     O    0.64077   0.57331   0.11171   1.000
    O21     O    0.49976   0.39931   0.31978   1.000
    O22     O    0.58755   0.34688   0.28239   1.000
    N23     N    0.45856   0.95232   0.33697   1.000
    O24     O    0.41245   0.84680   0.21764   1.000
    O25     O    0.35924   0.07324   0.38830   1.000
    O26     O    0.51994   0.06286   0.40302   1.000
    O27     O    0.50023   0.89921   0.18023   1.000
    N28     N    0.95298   0.95229   0.33692   1.000
    O29     O    0.85644   0.07323   0.38825   1.000
    O30     O    0.99747   0.89923   0.18021   1.000
    O31     O    0.01715   0.06282   0.40301   1.000
    O32     O    0.90967   0.84677   0.21752   1.000
    N33     N    0.29146   0.04751   0.83697   1.000
    O34     O    0.23007   0.93703   0.90304   1.000
    O35     O    0.39078   0.92664   0.88828   1.000
    O36     O    0.24978   0.10065   0.68026   1.000
    O37     O    0.33757   0.15310   0.71761   1.000
    N38     N    0.70856   0.54750   0.66301   1.000
    O39     O    0.75023   0.60066   0.81972   1.000
    O40     O    0.66244   0.65309   0.78235   1.000
    O41     O    0.76994   0.43703   0.59696   1.000
    O42     O    0.60924   0.42664   0.61172   1.000
    N43     N    0.20854   0.54751   0.66307   1.000
    O44     O    0.16244   0.65309   0.78244   1.000
    O45     O    0.26993   0.43704   0.59693   1.000
    O46     O    0.10922   0.42664   0.61175   1.000
    O47     O    0.25024   0.60066   0.81980   1.000
    O48     O    0.68959   0.40376   0.58454   1.000
    O49     O    0.31043   0.90376   0.91545   1.000
    O50     O    0.06045   0.59618   0.08461   1.000
    O51     O    0.56041   0.59620   0.08457   1.000
    O52     O    0.18958   0.40375   0.58457   1.000
    O53     O    0.81042   0.90374   0.91542   1.000
    O54     O    0.43959   0.09614   0.41545   1.000
    O55     O    0.93679   0.09611   0.41541   1.000
loop_
    _geom_bond_atom_site_label_1
    _geom_bond_atom_site_label_2
    _geom_bond_distance
    _geom_bond_site_symmetry_2
    _ccdc_geom_bond_type
    N8     O9        2.46960      .   S
    Zr6    O9        3.69672      .   S
    N8     O10       2.56290  1_455   S
    Zr1    O10       3.75924      .   S
    N8     O11       2.09066  1_455   S
    Zr3    O11       2.95459      .   S
    N8     O12       2.37361      .   S
    Zr2    O12       3.31517      .   S
    N13    O14       2.56319      .   S
    Zr7    O14       3.75963      .   S
    N13    O15       2.46925      .   S
    Zr1    O15       3.69684      .   S
    N13    O16       2.09057  1_545   S
    Zr5    O16       2.95421      .   S
    N13    O17       2.37370  1_545   S
    Zr4    O17       3.31532  1_455   S
    N18    O19       2.09030      .   S
    Zr2    O19       2.95387      .   S
    N18    O20       2.37347      .   S
    Zr3    O20       3.31508      .   S
    N18    O21       2.56318      .   S
    Zr0    O21       3.75961      .   S
    N18    O22       2.46932      .   S
    Zr7    O22       3.69697      .   S
    N23    O24       2.46845      .   S
    Zr2    O24       3.69631      .   S
    N23    O25       2.37437  1_565   S
    Zr6    O25       3.31563      .   S
    N23    O26       2.09122  1_565   S
    Zr7    O26       2.95458      .   S
    N23    O27       2.56297      .   S
    Zr5    O27       3.75934  1_556   S
    N28    O29       2.35310  1_565   S
    Zr7    O29       3.28648      .   S
    N28    O30       2.57113      .   S
    Zr4    O30       3.76961  1_456   S
    N28    O31       2.10696  1_665   S
    Zr6    O31       2.98174      .   S
    N28    O32       2.45972      .   S
    Zr3    O32       3.68494      .   S
    N33    O34       2.09061  1_545   S
    Zr4    O34       2.95438      .   S
    N33    O35       2.37357  1_545   S
    Zr5    O35       3.31509      .   S
    N33    O36       2.56282      .   S
    Zr6    O36       3.75891      .   S
    N33    O37       2.46953      .   S
    Zr0    O37       3.69691      .   S
    N38    O39       2.56290      .   S
    Zr3    O39       3.75909  1_554   S
    N38    O40       2.46933      .   S
    Zr5    O40       3.69725      .   S
    N38    O41       2.09037      .   S
    Zr1    O41       2.95403      .   S
    N38    O42       2.37337      .   S
    Zr0    O42       3.31486      .   S
    N43    O44       2.46945      .   S
    Zr4    O44       3.69683      .   S
    N43    O45       2.09094      .   S
    Zr0    O45       2.95381      .   S
    N43    O46       2.37359      .   S
    Zr1    O46       3.31526  1_655   S
    N43    O47       2.56322      .   S
    Zr2    O47       3.75959  1_554   S
    Zr7    O48       3.63804      .   S
    N38    O48       2.44870      .   S
    Zr2    O49       3.63810  1_554   S
    N33    O49       2.44882  1_545   S
    Zr4    O50       3.63829  1_556   S
    N8     O50       2.44887      .   S
    Zr5    O51       3.63793  1_556   S
    N18    O51       2.44866      .   S
    Zr6    O52       3.63802      .   S
    N43    O52       2.44908      .   S
    Zr3    O53       3.63832  1_554   S
    N13    O53       2.44893  1_545   S
    Zr0    O54       3.63921      .   S
    N23    O54       2.44982  1_565   S
    Zr1    O55       3.63684      .   S
    N28    O55       2.44619  1_565   S
