# CIF file generated by openbabel 2.4.90, see http://openbabel.sf.net
data_I
_chemical_name_common ''
_cell_length_a 17.267
_cell_length_b 17.302
_cell_length_c 17.294
_cell_angle_alpha 97.826
_cell_angle_beta 115.501
_cell_angle_gamma 115.506
_space_group_name_H-M_alt 'P 1'
_space_group_name_Hall 'P 1'
loop_
    _symmetry_equiv_pos_as_xyz
    x,y,z
loop_
    _atom_site_label
    _atom_site_type_symbol
    _atom_site_fract_x
    _atom_site_fract_y
    _atom_site_fract_z
    _atom_site_occupancy
    H0      H    0.33495   0.88669   0.97183   1.000
    H1      H    0.21996   0.80932   0.68552   1.000
    H2      H    0.09614   0.88155   0.63927   1.000
    H3      H    0.11149   0.98796   0.80872   1.000
    H4      H    0.53092   0.99908   0.88710   1.000
    H5      H    0.46842   0.75439   0.71502   1.000
    H6      H    0.61753   0.83809   0.67243   1.000
    H7      H    0.73242   0.05278   0.75105   1.000
    H8      H    0.21301   0.94082   0.90818   1.000
    H9      H    0.66394   0.05146   0.84282   1.000
    H10     H    0.83186   0.86089   0.44855   1.000
    H11     H    0.72370   0.03769   0.40970   1.000
    H12     H    0.60071   0.96060   0.21444   1.000
    H13     H    0.60798   0.79967   0.12410   1.000
    H14     H    0.03038   0.14501   0.52977   1.000
    H15     H    0.96714   0.25321   0.71269   1.000
    H16     H    0.11597   0.44436   0.77816   1.000
    H17     H    0.23251   0.48162   0.67926   1.000
    H18     H    0.71171   0.80371   0.27296   1.000
    H19     H    0.16315   0.32179   0.61060   1.000
    H20     H    0.16807   0.13905   0.55136   1.000
    H21     H    0.27623   0.96224   0.59010   1.000
    H22     H    0.39945   0.03951   0.78548   1.000
    H23     H    0.39197   0.20028   0.87571   1.000
    H24     H    0.96954   0.85496   0.47009   1.000
    H25     H    0.03290   0.74667   0.28732   1.000
    H26     H    0.88381   0.55560   0.22162   1.000
    H27     H    0.76747   0.51832   0.32069   1.000
    H28     H    0.28825   0.19624   0.72693   1.000
    H29     H    0.83677   0.67819   0.38923   1.000
    H30     H    0.66505   0.11328   0.02812   1.000
    H31     H    0.78003   0.19073   0.31443   1.000
    H32     H    0.90393   0.11855   0.36074   1.000
    H33     H    0.88841   0.01197   0.19125   1.000
    H34     H    0.46903   0.00094   0.11273   1.000
    H35     H    0.53160   0.24563   0.28490   1.000
    H36     H    0.38243   0.16191   0.32750   1.000
    H37     H    0.26753   0.94723   0.24890   1.000
    H38     H    0.78698   0.05916   0.09180   1.000
    H39     H    0.33604   0.94857   0.15710   1.000
    H40     H    0.08749   0.97110   0.13923   1.000
    H41     H    0.87318   0.68704   0.96265   1.000
    H42     H    0.75439   0.64066   0.03983   1.000
    H43     H    0.82369   0.80804   0.20036   1.000
    H44     H    0.88660   0.88710   0.85504   1.000
    H45     H    0.96014   0.71445   0.74690   1.000
    H46     H    0.83422   0.67185   0.55546   1.000
    H47     H    0.69742   0.75040   0.51837   1.000
    H48     H    0.96860   0.90765   0.19642   1.000
    H49     H    0.79024   0.84249   0.67807   1.000
    H50     H    0.58520   0.44854   0.11307   1.000
    H51     H    0.37543   0.40991   0.19048   1.000
    H52     H    0.25791   0.21466   0.11875   1.000
    H53     H    0.32123   0.12425   0.01181   1.000
    H54     H    0.38572   0.52990   0.00054   1.000
    H55     H    0.46011   0.71376   0.24535   1.000
    H56     H    0.33436   0.77948   0.16162   1.000
    H57     H    0.19800   0.67981   0.94691   1.000
    H58     H    0.46829   0.27306   0.05924   1.000
    H59     H    0.28965   0.61105   0.94806   1.000
    H60     H    0.41485   0.55151   0.88693   1.000
    H61     H    0.62450   0.59007   0.80930   1.000
    H62     H    0.74213   0.78534   0.88122   1.000
    H63     H    0.67874   0.87575   0.98807   1.000
    H64     H    0.61431   0.47019   0.99940   1.000
    H65     H    0.53969   0.28611   0.75460   1.000
    H66     H    0.66556   0.22053   0.83835   1.000
    H67     H    0.80197   0.32016   0.05307   1.000
    H68     H    0.53181   0.72700   0.94077   1.000
    H69     H    0.71033   0.38899   0.05195   1.000
    H70     H    0.91244   0.02894   0.86072   1.000
    H71     H    0.12689   0.31297   0.03733   1.000
    H72     H    0.24546   0.35936   0.95990   1.000
    H73     H    0.17624   0.19197   0.79952   1.000
    H74     H    0.11335   0.11288   0.14490   1.000
    H75     H    0.03984   0.28555   0.25303   1.000
    H76     H    0.16574   0.32815   0.44447   1.000
    H77     H    0.30257   0.24962   0.48154   1.000
    H78     H    0.03133   0.09235   0.80350   1.000
    H79     H    0.20975   0.15752   0.32188   1.000
    C80     C    0.29245   0.87838   0.90036   1.000
    C81     C    0.23201   0.83936   0.75200   1.000
    C82     C    0.19062   0.88603   0.77272   1.000
    C83     C    0.12277   0.90841   0.71270   1.000
    C84     C    0.08886   0.95867   0.73697   1.000
    C85     C    0.01662   0.97353   0.66539   1.000
    C86     C    0.53615   0.95295   0.84302   1.000
    C87     C    0.50526   0.82818   0.75270   1.000
    C88     C    0.58459   0.90400   0.75750   1.000
    C89     C    0.63827   0.90610   0.71260   1.000
    C90     C    0.70881   0.98270   0.71354   1.000
    C91     C    0.75714   0.97606   0.66231   1.000
    N92     N    0.39804   0.01799   0.18469   1.000
    N93     N    0.99609   0.83244   0.03617   1.000
    N94     N    0.95879   0.86747   0.13760   1.000
    N95     N    0.94528   0.80536   0.82948   1.000
    C96     C    0.79097   0.89113   0.41420   1.000
    C97     C    0.73407   0.98178   0.39216   1.000
    C98     C    0.69170   0.91883   0.30452   1.000
    C99     C    0.62458   0.91148   0.21440   1.000
    C100    C    0.58823   0.85118   0.13056   1.000
    C101    C    0.51693   0.85116   0.04345   1.000
    C102    C    0.03522   0.19398   0.58115   1.000
    C103    C    0.00406   0.25268   0.67550   1.000
    C104    C    0.08344   0.32711   0.67902   1.000
    C105    C    0.13716   0.42531   0.73099   1.000
    C106    C    0.20831   0.49500   0.72552   1.000
    C107    C    0.25663   0.59405   0.78113   1.000
    C108    C    0.20897   0.10880   0.58570   1.000
    C109    C    0.26588   0.01817   0.60774   1.000
    C110    C    0.30830   0.08115   0.69538   1.000
    C111    C    0.37549   0.08855   0.78550   1.000
    C112    C    0.41175   0.14879   0.86934   1.000
    C113    C    0.48302   0.14882   0.95647   1.000
    C114    C    0.96473   0.80598   0.41874   1.000
    C115    C    0.99593   0.74725   0.32445   1.000
    C116    C    0.91651   0.67284   0.32091   1.000
    C117    C    0.86272   0.57464   0.26888   1.000
    C118    C    0.79159   0.50494   0.27435   1.000
    C119    C    0.74332   0.40591   0.21874   1.000
    C120    C    0.70753   0.12159   0.09959   1.000
    C121    C    0.76798   0.16068   0.24780   1.000
    C122    C    0.80938   0.11400   0.22727   1.000
    C123    C    0.87725   0.09164   0.28727   1.000
    C124    C    0.91105   0.04127   0.26301   1.000
    C125    C    0.98333   0.02644   0.33457   1.000
    C126    C    0.46381   0.04706   0.15692   1.000
    C127    C    0.49473   0.17184   0.24726   1.000
    C128    C    0.41541   0.09603   0.24242   1.000
    C129    C    0.36171   0.09392   0.28735   1.000
    C130    C    0.29116   0.01731   0.28640   1.000
    C131    C    0.24285   0.02398   0.33765   1.000
    C132    C    0.02309   0.90011   0.10902   1.000
    C133    C    0.91107   0.75301   0.01849   1.000
    C134    C    0.88591   0.77321   0.08139   1.000
    C135    C    0.80311   0.71340   0.08880   1.000
    C136    C    0.77902   0.73703   0.14899   1.000
    C137    C    0.69188   0.66570   0.14898   1.000
    C138    C    0.88882   0.84275   0.80605   1.000
    C139    C    0.92380   0.75220   0.74740   1.000
    C140    C    0.85279   0.75700   0.67285   1.000
    C141    C    0.80606   0.71202   0.57450   1.000
    C142    C    0.73039   0.71296   0.50488   1.000
    C143    C    0.68642   0.66178   0.40574   1.000
    C144    C    0.52198   0.41421   0.12145   1.000
    C145    C    0.41231   0.39228   0.16000   1.000
    C146    C    0.38680   0.30464   0.11395   1.000
    C147    C    0.30460   0.21460   0.09170   1.000
    C148    C    0.27872   0.13076   0.04132   1.000
    C149    C    0.19245   0.04380   0.02666   1.000
    C150    C    0.38807   0.58157   0.04669   1.000
    C151    C    0.42359   0.67642   0.17153   1.000
    C152    C    0.35263   0.67990   0.09565   1.000
    C153    C    0.30623   0.73204   0.09359   1.000
    C154    C    0.23085   0.72636   0.01703   1.000
    C155    C    0.18687   0.78184   0.02383   1.000
    C156    C    0.47806   0.58583   0.87853   1.000
    C157    C    0.58766   0.60772   0.83942   1.000
    C158    C    0.61323   0.69537   0.88601   1.000
    C159    C    0.69545   0.78541   0.90827   1.000
    C160    C    0.72126   0.86925   0.95857   1.000
    C161    C    0.80754   0.95620   0.97325   1.000
    C162    C    0.61191   0.41848   0.95330   1.000
    C163    C    0.57628   0.32352   0.82847   1.000
    C164    C    0.64728   0.32008   0.90436   1.000
    C165    C    0.69370   0.26796   0.90639   1.000
    C166    C    0.76909   0.27363   0.98293   1.000
    C167    C    0.81308   0.21816   0.97609   1.000
    C168    C    0.97687   0.09991   0.89090   1.000
    C169    C    0.08895   0.24701   0.98147   1.000
    C170    C    0.11404   0.22679   0.91852   1.000
    C171    C    0.19679   0.28660   0.91103   1.000
    C172    C    0.22089   0.26298   0.85087   1.000
    C173    C    0.30807   0.33432   0.85094   1.000
    C174    C    0.11114   0.15723   0.19389   1.000
    C175    C    0.07619   0.24780   0.25255   1.000
    C176    C    0.14719   0.24301   0.32710   1.000
    C177    C    0.19393   0.28800   0.42538   1.000
    C178    C    0.26960   0.28706   0.49506   1.000
    C179    C    0.31358   0.33823   0.59420   1.000
    N180    N    0.29540   0.83544   0.83199   1.000
    N181    N    0.23112   0.90990   0.86771   1.000
    N182    N    0.47574   0.85935   0.80570   1.000
    N183    N    0.60193   0.98203   0.81526   1.000
    N184    N    0.79581   0.96406   0.45958   1.000
    N185    N    0.72993   0.86252   0.32153   1.000
    N186    N    0.97465   0.17064   0.61449   1.000
    N187    N    0.10092   0.28722   0.61800   1.000
    N188    N    0.20410   0.03587   0.54032   1.000
    N189    N    0.27005   0.13744   0.67837   1.000
    N190    N    0.02535   0.82931   0.38540   1.000
    N191    N    0.89901   0.71274   0.38189   1.000
    N192    N    0.70457   0.16454   0.16794   1.000
    N193    N    0.76888   0.09009   0.13227   1.000
    N194    N    0.52424   0.14066   0.19424   1.000
    N195    N    0.83213   0.81485   0.71272   1.000
    N196    N    0.49605   0.45964   0.16430   1.000
    N197    N    0.45820   0.32159   0.09007   1.000
    N198    N    0.44474   0.61513   0.14036   1.000
    N199    N    0.33161   0.61859   0.01758   1.000
    N200    N    0.50392   0.54038   0.83562   1.000
    N201    N    0.54188   0.67845   0.90994   1.000
    N202    N    0.55517   0.38485   0.85963   1.000
    N203    N    0.66836   0.38145   0.98242   1.000
    N204    N    0.00392   0.16759   0.96381   1.000
    N205    N    0.04114   0.13253   0.86232   1.000
    N206    N    0.05467   0.19462   0.17046   1.000
    N207    N    0.16785   0.18515   0.28720   1.000
    O208    O    0.98857   0.02357   0.69670   1.000
    O209    O    0.98413   0.94051   0.58120   1.000
    O210    O    0.81195   0.05319   0.65794   1.000
    O211    O    0.74568   0.90015   0.62573   1.000
    O212    O    0.48672   0.78960   0.96588   1.000
    O213    O    0.48710   0.90522   0.04354   1.000
    O214    O    0.31206   0.65364   0.75944   1.000
    O215    O    0.24439   0.61830   0.84535   1.000
    O216    O    0.51336   0.21050   0.03402   1.000
    O217    O    0.51276   0.09468   0.95640   1.000
    O218    O    0.68787   0.34630   0.24039   1.000
    O219    O    0.75553   0.38170   0.15448   1.000
    O220    O    0.01147   0.97650   0.30326   1.000
    O221    O    0.01572   0.05933   0.41875   1.000
    O222    O    0.18804   0.94686   0.34202   1.000
    O223    O    0.25435   0.09990   0.37420   1.000
    O224    O    0.67478   0.69667   0.20994   1.000
    O225    O    0.63871   0.58204   0.09529   1.000
    O226    O    0.60483   0.65730   0.34635   1.000
    O227    O    0.72643   0.62543   0.38124   1.000
    O228    O    0.17425   0.96612   0.97682   1.000
    O229    O    0.14093   0.04410   0.05960   1.000
    O230    O    0.10555   0.75996   0.94681   1.000
    O231    O    0.22649   0.84629   0.09977   1.000
    O232    O    0.82571   0.03388   0.02307   1.000
    O233    O    0.85906   0.95591   0.94032   1.000
    O234    O    0.89445   0.24007   0.05309   1.000
    O235    O    0.77344   0.15372   0.90015   1.000
    O236    O    0.32513   0.30337   0.78994   1.000
    O237    O    0.36124   0.41798   0.90465   1.000
    O238    O    0.39516   0.34268   0.65358   1.000
    O239    O    0.27359   0.37458   0.61873   1.000
loop_
    _geom_bond_atom_site_label_1
    _geom_bond_atom_site_label_2
    _geom_bond_distance
    _geom_bond_site_symmetry_2
    _ccdc_geom_bond_type
    H54    C150      1.08826      .   S
    H53    C148      1.09092      .   S
    C154   C155      1.47848      .   S
    C154   C153      1.35176      .   S
    C154   H57       1.09052  1_554   S
    N199   C150      1.34806      .   S
    N199   C152      1.39150      .   S
    N199   H59       1.05514  1_554   S
    C133   N93       1.37801      .   S
    C133   C134      1.38866      .   S
    C133   H41       1.08445  1_554   S
    O232   C161      1.31748  1_544   S
    C155   O231      1.26755      .   S
    C155   O230      1.29752  1_554   S
    C149   C148      1.47908      .   S
    C149   O229      1.24712      .   S
    C149   O228      1.31752  1_544   S
    H30    C120      1.08006      .   S
    O216   C113      1.31755  1_554   S
    N93    C132      1.34089  1_655   S
    H71    C169      1.08439  1_554   S
    H42    C135      1.09240      .   S
    C148   C147      1.35107      .   S
    C101   O213      1.24722      .   S
    C101   C100      1.47905      .   S
    C101   O212      1.31762  1_554   S
    C150   N198      1.34479      .   S
    H69    N203      1.05531  1_554   S
    H67    C166      1.09060  1_554   S
    O234   C167      1.29760  1_554   S
    H58    N197      1.05065      .   S
    C134   C135      1.43214      .   S
    C134   N94       1.39128      .   S
    C135   C136      1.35175      .   S
    N197   C146      1.39146      .   S
    N197   C144      1.34316      .   S
    C147   C146      1.43254      .   S
    C147   H52       1.09266      .   S
    H38    N193      1.05093      .   S
    C153   C152      1.43662      .   S
    C153   H56       1.09333      .   S
    O225   C137      1.24731      .   S
    C152   C151      1.38838      .   S
    C120   N193      1.34308      .   S
    C120   N192      1.34079      .   S
    C132   N94       1.34320  1_455   S
    C132   H40       1.08022      .   S
    H34    C126      1.08816      .   S
    H50    C144      1.08022      .   S
    C146   C145      1.38615      .   S
    C144   N196      1.34076      .   S
    H13    C100      1.09115      .   S
    C100   C99       1.35099      .   S
    N193   C122      1.39137      .   S
    N94    H48       1.05092      .   S
    N198   C151      1.37690      .   S
    H74    C174      1.08813      .   S
    C137   C136      1.47905      .   S
    C137   O224      1.31768      .   S
    C136   H43       1.09094      .   S
    O219   C119      1.26725      .   S
    C126   N92       1.34791      .   S
    C126   N194      1.34464      .   S
    H39    N92       1.05507  1_565   S
    C145   N196      1.37365      .   S
    C145   H51       1.09048      .   S
    N192   C121      1.37728      .   S
    N206   C174      1.34454      .   S
    N206   C175      1.37692      .   S
    C151   H55       1.08456      .   S
    N92    C128      1.39152      .   S
    H33    C124      1.09093      .   S
    C174   N207      1.34757      .   S
    N194   C127      1.37683      .   S
    C99    H12       1.09263      .   S
    C99    C98       1.43253      .   S
    C119   O218      1.29763      .   S
    C119   C118      1.47870      .   S
    H26    C117      1.09336      .   S
    C122   C121      1.38816      .   S
    C122   C123      1.43257      .   S
    C128   C127      1.38848      .   S
    C128   C129      1.43656      .   S
    C127   H35       1.08439      .   S
    C121   H31       1.08570      .   S
    H37    C130      1.09057  1_565   S
    C175   H75       1.08462      .   S
    C175   C176      1.38847      .   S
    C124   C123      1.35117      .   S
    C124   C125      1.47902      .   S
    C117   C118      1.35184      .   S
    C117   C116      1.43664      .   S
    H18    N185      1.05071      .   S
    C118   H27       1.09046      .   S
    C130   C129      1.35179      .   S
    C130   C131      1.47851      .   S
    N207   H79       1.05550      .   S
    N207   C176      1.39162      .   S
    C123   H32       1.09251      .   S
    H25    C115      1.08470  1_455   S
    C129   H36       1.09338      .   S
    O220   C125      1.31774  1_465   S
    C98    N185      1.39144      .   S
    C98    C97       1.38854      .   S
    C116   C115      1.38845      .   S
    C116   N191      1.39136      .   S
    N185   C96       1.34334      .   S
    C115   N190      1.37663  1_655   S
    C176   C177      1.43655      .   S
    C125   O221      1.24712  1_655   S
    C131   O222      1.29750  1_545   S
    C131   O223      1.26718      .   S
    O226   C143      1.29777      .   S
    O227   C143      1.26719      .   S
    N191   H29       1.05510      .   S
    N191   C114      1.34799      .   S
    N190   C114      1.34540  1_455   S
    C97    H11       1.08444  1_565   S
    C97    N184      1.37790      .   S
    C143   C142      1.47882      .   S
    C96    H10       1.08028      .   S
    C96    N184      1.34088      .   S
    C114   H24       1.08842      .   S
    C177   H76       1.09337      .   S
    C177   C178      1.35195      .   S
    H77    C178      1.09051      .   S
    C178   C179      1.47876      .   S
    C142   H47       1.09046      .   S
    C142   C141      1.35137      .   S
    H14    C102      1.08831      .   S
    N188   C108      1.34081      .   S
    N188   C109      1.37794      .   S
    H20    C108      1.08022      .   S
    H46    C141      1.09289      .   S
    C141   C140      1.43759      .   S
    C102   N186      1.34482  1_455   S
    C102   N187      1.34801      .   S
    O209   C85       1.24706  1_655   S
    C108   N189      1.34335      .   S
    H21    C109      1.08481  1_565   S
    C179   O239      1.26717      .   S
    C179   O238      1.29781      .   S
    C109   C110      1.38851      .   S
    H19    N187      1.05577      .   S
    N186   C103      1.37695  1_655   S
    N187   C104      1.39145      .   S
    O211   C91       1.26748      .   S
    H2     C83       1.09201      .   S
    O210   C91       1.29751  1_545   S
    C91    C90       1.47848      .   S
    C85    O208      1.31772  1_465   S
    C85    C84       1.47913      .   S
    H6     C89       1.09342      .   S
    C140   N195      1.39139      .   S
    C140   C139      1.38852      .   S
    C103   C104      1.38845      .   S
    C103   H15       1.08464  1_455   S
    H49    N195      1.05532      .   S
    N189   C110      1.39150      .   S
    N189   H28       1.05054      .   S
    C104   C105      1.43665      .   S
    H17    C106      1.09046      .   S
    H1     C81       1.08317      .   S
    C110   C111      1.43249      .   S
    C89    C90       1.35185      .   S
    C89    C88       1.43593      .   S
    C83    C84       1.35142      .   S
    C83    C82       1.43276      .   S
    N195   C138      1.34788      .   S
    C90    H7        1.09060  1_565   S
    H5     C87       1.08463      .   S
    C106   C105      1.35190      .   S
    C106   C107      1.47879      .   S
    C105   H16       1.09336      .   S
    C84    H3        1.09084      .   S
    H45    C139      1.08468      .   S
    C139   N95       1.37687      .   S
    C81    C82       1.38925      .   S
    C81    N180      1.37907      .   S
    C87    C88       1.38885      .   S
    C87    N182      1.37678      .   S
    H65    C163      1.08529      .   S
    C88    N183      1.39187      .   S
    O214   C107      1.29777      .   S
    C82    N181      1.39126      .   S
    C107   O215      1.26714      .   S
    H22    C111      1.09259      .   S
    C111   C112      1.35106      .   S
    O236   C173      1.31759      .   S
    H73    C172      1.09093      .   S
    H78    N205      1.05093      .   S
    N182   C86       1.34466      .   S
    C138   N95       1.34455      .   S
    C138   H44       1.08817      .   S
    H61    C157      1.08553      .   S
    N183   H9        1.05532  1_565   S
    N183   C86       1.34798      .   S
    C163   N202      1.37684      .   S
    C163   C164      1.38841      .   S
    N180   C80       1.34082      .   S
    N200   C157      1.37806      .   S
    N200   C156      1.34079      .   S
    H66    C165      1.09330      .   S
    C157   C158      1.38860      .   S
    C86    H4        1.08716      .   S
    C172   C173      1.47904      .   S
    C172   C171      1.35129      .   S
    C173   O237      1.24735      .   S
    N202   C162      1.34476      .   S
    H70    C168      1.08029      .   S
    N205   C168      1.34277  1_455   S
    N205   C170      1.39128      .   S
    N181   C80       1.34310      .   S
    N181   H8        1.05091      .   S
    C112   H23       1.09098      .   S
    C112   C113      1.47906      .   S
    C156   H60       1.08021      .   S
    C156   N201      1.34319      .   S
    H62    C159      1.09267      .   S
    C158   C159      1.43249      .   S
    C158   N201      1.39150      .   S
    C168   N204      1.34126  1_655   S
    O235   C167      1.26747      .   S
    C80    H0        1.08013      .   S
    C164   C165      1.43668      .   S
    C164   N203      1.39140      .   S
    C165   C166      1.35180      .   S
    C159   C160      1.35101      .   S
    N201   H68       1.05067      .   S
    C171   C170      1.43247      .   S
    C171   H72       1.09216      .   S
    C170   C169      1.38862      .   S
    O233   C161      1.24700      .   S
    C162   N203      1.34801      .   S
    C162   H64       1.08770      .   S
    O217   C113      1.24725      .   S
    C160   C161      1.47903      .   S
    C160   H63       1.09094      .   S
    N204   C169      1.37802      .   S
    C167   C166      1.47847      .   S
