# CIF file generated by openbabel 2.4.90, see http://openbabel.sf.net
data_I
_chemical_name_common ''
_cell_length_a 13.72
_cell_length_b 14.236
_cell_length_c 15.975
_cell_angle_alpha 90.004
_cell_angle_beta 89.996
_cell_angle_gamma 89.99
_space_group_name_H-M_alt 'P 1'
_space_group_name_Hall 'P 1'
loop_
    _symmetry_equiv_pos_as_xyz
    x,y,z
loop_
    _atom_site_label
    _atom_site_type_symbol
    _atom_site_fract_x
    _atom_site_fract_y
    _atom_site_fract_z
    _atom_site_occupancy
    Zr0     Zr   0.28100   0.23426   0.99849   1.000
    Zr1     Zr   0.78114   0.23439   0.99845   1.000
    Zr2     Zr   0.46926   0.76096   0.49895   1.000
    Zr3     Zr   0.96923   0.76095   0.49799   1.000
    Zr4     Zr   0.21945   0.73334   0.49800   1.000
    Zr5     Zr   0.71945   0.73334   0.49886   1.000
    Zr6     Zr   0.03119   0.26195   0.99852   1.000
    Zr7     Zr   0.53117   0.26187   0.99900   1.000
    N8      N    0.37536   0.49829   0.24815   1.000
    O9      O    0.41608   0.60613   0.35129   1.000
    O10     O    0.31233   0.59606   0.35101   1.000
    O11     O    0.33452   0.39000   0.14541   1.000
    O12     O    0.43835   0.40002   0.14557   1.000
    N13     N    0.87543   0.50063   0.75065   1.000
    O14     O    0.83466   0.39212   0.85321   1.000
    O15     O    0.91610   0.60732   0.64658   1.000
    O16     O    0.81237   0.59726   0.64686   1.000
    O17     O    0.93845   0.40212   0.85317   1.000
    N18     N    0.62527   0.00059   0.74705   1.000
    O19     O    0.68828   0.09798   0.85039   1.000
    O20     O    0.56217   0.90138   0.64488   1.000
    O21     O    0.58451   0.10793   0.85062   1.000
    O22     O    0.66605   0.89142   0.64475   1.000
    N23     N    0.12541   0.99796   0.24807   1.000
    O24     O    0.08461   0.10582   0.14507   1.000
    O25     O    0.18836   0.09571   0.14501   1.000
    O26     O    0.06227   0.90003   0.35114   1.000
    O27     O    0.16615   0.88997   0.35119   1.000
    N28     N    0.37500   0.49776   0.74861   1.000
    O29     O    0.41573   0.60577   0.64584   1.000
    O30     O    0.43809   0.40060   0.85233   1.000
    O31     O    0.33434   0.38970   0.85145   1.000
    O32     O    0.31208   0.59487   0.64483   1.000
    N33     N    0.87505   0.49529   0.25037   1.000
    O34     O    0.83440   0.38758   0.14726   1.000
    O35     O    0.93810   0.39850   0.14652   1.000
    O36     O    0.81211   0.59359   0.35316   1.000
    O37     O    0.91575   0.60450   0.35213   1.000
    N38     N    0.64184   0.30384   0.99986   1.000
    O39     O    0.67667   0.28648   0.99951   1.000
    O40     O    0.61417   0.29335   0.99964   1.000
    N41     N    0.62533   0.99570   0.24692   1.000
    O42     O    0.66611   0.88793   0.35025   1.000
    O43     O    0.56237   0.89900   0.35120   1.000
    O44     O    0.68829   0.09377   0.14383   1.000
    O45     O    0.58460   0.10466   0.14472   1.000
    N46     N    0.12552   0.99809   0.74828   1.000
    O47     O    0.18841   0.09580   0.85159   1.000
    O48     O    0.06243   0.90019   0.64491   1.000
    O49     O    0.16620   0.88922   0.64572   1.000
    O50     O    0.08476   0.10667   0.85097   1.000
    N51     N    0.85839   0.80268   0.49789   1.000
    O52     O    0.88610   0.79225   0.49791   1.000
    O53     O    0.82366   0.78535   0.49813   1.000
    N54     N    0.10849   0.69188   0.49717   1.000
    O55     O    0.07367   0.70915   0.49737   1.000
    O56     O    0.13623   0.70225   0.49738   1.000
    N57     N    0.60848   0.69186   0.49970   1.000
    O58     O    0.63622   0.70223   0.49949   1.000
    O59     O    0.57368   0.70914   0.49951   1.000
    N60     N    0.89200   0.19293   0.99680   1.000
    O61     O    0.86429   0.20330   0.99721   1.000
    O62     O    0.92680   0.21019   0.99723   1.000
    N63     N    0.39189   0.19284   0.99856   1.000
    O64     O    0.36417   0.20320   0.99854   1.000
    O65     O    0.42671   0.21010   0.99867   1.000
    N66     N    0.14196   0.30378   0.99933   1.000
    O67     O    0.17672   0.28640   0.99912   1.000
    O68     O    0.11427   0.29333   0.99913   1.000
    N69     N    0.35839   0.80261   0.49913   1.000
    O70     O    0.38611   0.79220   0.49908   1.000
    O71     O    0.32366   0.78529   0.49885   1.000
loop_
    _geom_bond_atom_site_label_1
    _geom_bond_atom_site_label_2
    _geom_bond_distance
    _geom_bond_site_symmetry_2
    _ccdc_geom_bond_type
    N8     O9        2.32039      .   S
    Zr2    O9        3.30980      .   S
    N8     O10       2.32041      .   S
    Zr4    O10       3.30993      .   S
    N8     O11       2.32039      .   S
    Zr0    O11       3.31111  1_556   S
    N8     O12       2.32126      .   S
    Zr7    O12       3.31214  1_556   S
    N13    O14       2.32037      .   S
    Zr1    O14       3.31140      .   S
    N13    O15       2.32007      .   S
    Zr3    O15       3.30910      .   S
    N13    O16       2.32164      .   S
    Zr5    O16       3.31191      .   S
    N13    O17       2.32306      .   S
    Zr6    O17       3.31548  1_455   S
    N18    O19       2.32277      .   S
    Zr1    O19       3.31509      .   S
    N18    O20       2.32560  1_545   S
    Zr2    O20       3.32508      .   S
    N18    O21       2.32044      .   S
    Zr7    O21       3.30987      .   S
    N18    O22       2.32342  1_545   S
    Zr5    O22       3.32131      .   S
    N23    O24       2.31925  1_565   S
    Zr6    O24       3.31042  1_556   S
    N23    O25       2.32242  1_565   S
    Zr0    O25       3.31451  1_556   S
    N23    O26       2.32501      .   S
    Zr3    O26       3.32472  1_655   S
    N23    O27       2.32147      .   S
    Zr4    O27       3.31779      .   S
    N28    O29       2.31777      .   S
    Zr2    O29       3.30576      .   S
    N28    O30       2.32552      .   S
    Zr7    O30       3.31988      .   S
    N28    O31       2.31896      .   S
    Zr0    O31       3.30918      .   S
    N28    O32       2.32484      .   S
    Zr4    O32       3.31714      .   S
    N33    O34       2.31853      .   S
    Zr1    O34       3.30768  1_556   S
    N33    O35       2.32341      .   S
    Zr6    O35       3.31631  1_456   S
    N33    O36       2.32365      .   S
    Zr5    O36       3.31516      .   S
    N33    O37       2.31769      .   S
    Zr3    O37       3.30584      .   S
    N38    O39       0.53796      .   S
    Zr1    O39       1.61387      .   S
    N38    O40       0.40796      .   S
    Zr7    O40       1.22387      .   S
    N41    O42       2.32210      .   S
    Zr5    O42       3.31885      .   S
    N41    O43       2.32750      .   S
    Zr2    O43       3.32647      .   S
    N41    O44       2.32551  1_565   S
    Zr1    O44       3.32046  1_556   S
    N41    O45       2.32027  1_565   S
    Zr7    O45       3.31148  1_556   S
    N46    O47       2.32452  1_565   S
    Zr0    O47       3.31768      .   S
    N46    O48       2.32782      .   S
    Zr3    O48       3.32772  1_655   S
    N46    O49       2.32324      .   S
    Zr4    O49       3.32035      .   S
    N46    O50       2.32212  1_565   S
    Zr6    O50       3.31386      .   S
    N51    O52       0.40814      .   S
    Zr3    O52       1.22443      .   S
    N51    O53       0.53673      .   S
    Zr5    O53       1.61019      .   S
    N54    O55       0.53716      .   S
    Zr3    O55       1.61149  1_655   S
    N54    O56       0.40824      .   S
    Zr4    O56       1.22472      .   S
    N57    O58       0.40829      .   S
    Zr5    O58       1.22486      .   S
    N57    O59       0.53710      .   S
    Zr2    O59       1.61129      .   S
    N60    O61       0.40790      .   S
    Zr1    O61       1.22371      .   S
    N60    O62       0.53698      .   S
    Zr6    O62       1.61093  1_455   S
    N63    O64       0.40790      .   S
    Zr0    O64       1.22369      .   S
    N63    O65       0.53724      .   S
    Zr7    O65       1.61171      .   S
    N66    O67       0.53727      .   S
    Zr0    O67       1.61180      .   S
    N66    O68       0.40810      .   S
    Zr6    O68       1.22430      .   S
    N69    O70       0.40813      .   S
    Zr2    O70       1.22439      .   S
    N69    O71       0.53661      .   S
    Zr4    O71       1.60983      .   S
