# CIF file generated by openbabel 2.4.90, see http://openbabel.sf.net
data_I
_chemical_name_common ''
_cell_length_a 14.809
_cell_length_b 21.175
_cell_length_c 21.172
_cell_angle_alpha 83.049
_cell_angle_beta 69.624
_cell_angle_gamma 69.642
_space_group_name_H-M_alt 'P 1'
_space_group_name_Hall 'P 1'
loop_
    _symmetry_equiv_pos_as_xyz
    x,y,z
loop_
    _atom_site_label
    _atom_site_type_symbol
    _atom_site_fract_x
    _atom_site_fract_y
    _atom_site_fract_z
    _atom_site_occupancy
    H0      H    0.98874   0.92896   0.73618   1.000
    H1      H    0.76703   0.04377   0.07973   1.000
    H2      H    0.76844   0.94466   0.02600   1.000
    H3      H    0.74355   0.06644   0.00000   1.000
    H4      H    0.03558   0.93444   0.92387   1.000
    H5      H    0.93834   0.86538   0.03212   1.000
    H6      H    0.17371   0.91114   0.82843   1.000
    H7      H    0.11731   0.99331   0.70967   1.000
    H8      H    0.11960   0.02691   0.78187   1.000
    H9      H    0.86559   0.05532   0.00655   1.000
    H10     H    0.97502   0.93639   0.03400   1.000
    H11     H    0.86953   0.92389   0.09988   1.000
    H12     H    0.15836   0.86313   0.70205   1.000
    H13     H    0.71415   0.94315   0.81920   1.000
    H14     H    0.77021   0.90859   0.70215   1.000
    H15     H    0.89235   0.91482   0.68570   1.000
    H16     H    0.85540   0.85211   0.74207   1.000
    H17     H    0.69145   0.03305   0.73327   1.000
    H18     H    0.70925   0.06260   0.80200   1.000
    H19     H    0.81131   0.04071   0.72430   1.000
    H20     H    0.54951   0.89014   0.20657   1.000
    H21     H    0.53670   0.09794   0.18433   1.000
    H22     H    0.55919   0.89248   0.32242   1.000
    H23     H    0.54890   0.09147   0.30080   1.000
    H24     H    0.23472   0.97497   0.72387   1.000
    H25     H    0.27088   0.84844   0.72110   1.000
    H26     H    0.17777   0.81170   0.77222   1.000
    H27     H    0.15465   0.57086   0.76419   1.000
    H28     H    0.38983   0.45674   0.42040   1.000
    H29     H    0.23910   0.55572   0.47420   1.000
    H30     H    0.31129   0.43390   0.49838   1.000
    H31     H    0.39396   0.56586   0.57670   1.000
    H32     H    0.33592   0.63508   0.46836   1.000
    H33     H    0.41355   0.58906   0.67234   1.000
    H34     H    0.32061   0.50664   0.79082   1.000
    H35     H    0.42848   0.47323   0.71870   1.000
    H36     H    0.42703   0.44509   0.49358   1.000
    H37     H    0.44567   0.56413   0.46603   1.000
    H38     H    0.39307   0.57664   0.40053   1.000
    H39     H    0.22430   0.63682   0.79859   1.000
    H40     H    0.97742   0.55645   0.68069   1.000
    H41     H    0.88206   0.59094   0.79779   1.000
    H42     H    0.99384   0.58502   0.81433   1.000
    H43     H    0.95047   0.64761   0.75790   1.000
    H44     H    0.95867   0.46648   0.76655   1.000
    H45     H    0.07465   0.43710   0.69802   1.000
    H46     H    0.07691   0.45913   0.77588   1.000
    H47     H    0.14697   0.60942   0.29342   1.000
    H48     H    0.31812   0.40156   0.31599   1.000
    H49     H    0.27466   0.60689   0.17768   1.000
    H50     H    0.44016   0.40781   0.19960   1.000
    H51     H    0.43369   0.52514   0.77694   1.000
    H52     H    0.34114   0.65156   0.77970   1.000
    H53     H    0.26253   0.68837   0.72857   1.000
    H54     H    0.72559   0.26403   0.42892   1.000
    H55     H    0.84642   0.92051   0.54358   1.000
    H56     H    0.79446   0.97416   0.44447   1.000
    H57     H    0.74526   0.99854   0.56630   1.000
    H58     H    0.95959   0.07657   0.43426   1.000
    H59     H    0.97037   0.96819   0.36516   1.000
    H60     H    0.00000   0.17213   0.41091   1.000
    H61     H    0.82760   0.29070   0.49324   1.000
    H62     H    0.90203   0.21859   0.52674   1.000
    H63     H    0.87214   0.99367   0.55516   1.000
    H64     H    0.00942   0.96590   0.43617   1.000
    H65     H    0.96913   0.90045   0.42368   1.000
    H66     H    0.86095   0.29833   0.36304   1.000
    H67     H    0.53391   0.18068   0.44330   1.000
    H68     H    0.47308   0.29774   0.40879   1.000
    H69     H    0.57895   0.31425   0.41482   1.000
    H70     H    0.59794   0.25790   0.35217   1.000
    H71     H    0.42560   0.26657   0.53327   1.000
    H72     H    0.51211   0.19801   0.56272   1.000
    H73     H    0.53650   0.27580   0.54073   1.000
    H74     H    0.75518   0.79329   0.39040   1.000
    H75     H    0.71987   0.81585   0.59828   1.000
    H76     H    0.88014   0.67751   0.39292   1.000
    H77     H    0.84795   0.69943   0.59196   1.000
    H78     H    0.95911   0.27672   0.47479   1.000
    H79     H    0.99246   0.27946   0.34831   1.000
    H80     H    0.95042   0.22827   0.31150   1.000
    H81     H    0.91799   0.23608   0.07070   1.000
    H82     H    0.81062   0.57972   0.95635   1.000
    H83     H    0.71343   0.52588   0.05530   1.000
    H84     H    0.80980   0.50171   0.93350   1.000
    H85     H    0.97030   0.42369   0.06555   1.000
    H86     H    0.80422   0.53187   0.13473   1.000
    H87     H    0.08514   0.32824   0.08888   1.000
    H88     H    0.11070   0.20967   0.00000   1.000
    H89     H    0.14641   0.28192   0.97299   1.000
    H90     H    0.92071   0.50659   0.94471   1.000
    H91     H    0.91166   0.53431   0.06380   1.000
    H92     H    0.28655   0.47413   0.94470   1.000
    H93     H    0.19018   0.49830   0.06650   1.000
    H94     H    0.02967   0.57632   0.93446   1.000
    H95     H    0.19576   0.46814   0.86527   1.000
    H96     H    0.79377   0.59968   0.07629   1.000
    H97     H    0.02212   0.20178   0.13650   1.000
    H98     H    0.65763   0.31924   0.05641   1.000
    H99     H    0.67901   0.20222   0.09111   1.000
    H100    H    0.80732   0.18578   0.08490   1.000
    H101    H    0.70793   0.24218   0.14760   1.000
    H102    H    0.72439   0.23314   0.96663   1.000
    H103    H    0.77181   0.30176   0.93700   1.000
    H104    H    0.85186   0.22409   0.95904   1.000
    H105    H    0.44014   0.70662   0.10976   1.000
    H106    H    0.63428   0.68429   0.90197   1.000
    H107    H    0.45220   0.82245   0.10742   1.000
    H108    H    0.64011   0.80073   0.90845   1.000
    H109    H    0.20979   0.22383   0.02485   1.000
    H110    H    0.11993   0.22087   0.15135   1.000
    H111    H    0.99022   0.27183   0.18813   1.000
    H112    H    0.01124   0.07105   0.26382   1.000
    H113    H    0.23295   0.95623   0.92027   1.000
    H114    H    0.23154   0.05535   0.97398   1.000
    H115    H    0.25643   0.93356   0.99800   1.000
    H116    H    0.96440   0.06557   0.07614   1.000
    H117    H    0.06165   0.13463   0.96780   1.000
    H118    H    0.82627   0.08887   0.17158   1.000
    H119    H    0.88266   0.00000   0.29034   1.000
    H120    H    0.88037   0.97311   0.21814   1.000
    H121    H    0.13439   0.94468   0.99346   1.000
    H122    H    0.02496   0.06362   0.96551   1.000
    H123    H    0.13045   0.07611   0.90013   1.000
    C124    C    0.34636   0.58061   0.71123   1.000
    C125    C    0.38490   0.51765   0.75154   1.000
    C126    C    0.29011   0.64302   0.75690   1.000
    C127    C    0.02121   0.54563   0.71580   1.000
    C128    C    0.95860   0.59533   0.77460   1.000
    H129    H    0.84162   0.13689   0.29795   1.000
    H130    H    0.28583   0.05686   0.18075   1.000
    H131    H    0.22977   0.09142   0.29786   1.000
    H132    H    0.10763   0.08518   0.31425   1.000
    H133    H    0.14459   0.14789   0.25794   1.000
    H134    H    0.30853   0.96695   0.26674   1.000
    H135    H    0.29072   0.93740   0.19801   1.000
    H136    H    0.18866   0.95930   0.27571   1.000
    H137    H    0.45049   0.10986   0.79344   1.000
    H138    H    0.46329   0.90205   0.81568   1.000
    H139    H    0.44080   0.10752   0.67750   1.000
    H140    H    0.45109   0.90853   0.69921   1.000
    H141    H    0.76525   0.02505   0.27614   1.000
    H142    H    0.72910   0.15158   0.27885   1.000
    H143    H    0.82222   0.18831   0.22777   1.000
    H144    H    0.84532   0.42916   0.23582   1.000
    H145    H    0.61015   0.54326   0.57961   1.000
    H146    H    0.76088   0.44428   0.52581   1.000
    H147    H    0.68869   0.56610   0.50160   1.000
    H148    H    0.60602   0.43415   0.42330   1.000
    H149    H    0.66406   0.36492   0.53164   1.000
    H150    H    0.58642   0.41095   0.32766   1.000
    H151    H    0.67937   0.49337   0.20918   1.000
    H152    H    0.57150   0.52679   0.28130   1.000
    H153    H    0.57295   0.55491   0.50642   1.000
    H154    H    0.55431   0.43587   0.53398   1.000
    H155    H    0.60691   0.42337   0.59947   1.000
    H156    H    0.77567   0.36319   0.20141   1.000
    H157    H    0.02256   0.44356   0.31931   1.000
    H158    H    0.11792   0.40908   0.20222   1.000
    H159    H    0.00614   0.41499   0.18567   1.000
    H160    H    0.04950   0.35240   0.24204   1.000
    H161    H    0.04130   0.53353   0.23346   1.000
    H162    H    0.92533   0.56290   0.30199   1.000
    H163    H    0.92306   0.54089   0.22413   1.000
    H164    H    0.85300   0.39058   0.70659   1.000
    H165    H    0.68186   0.59844   0.68401   1.000
    H166    H    0.72532   0.39312   0.82233   1.000
    H167    H    0.55982   0.59219   0.80040   1.000
    H168    H    0.56629   0.47487   0.22306   1.000
    H169    H    0.65884   0.34845   0.22024   1.000
    H170    H    0.73745   0.31164   0.27144   1.000
    H171    H    0.27440   0.73597   0.57109   1.000
    H172    H    0.15358   0.07949   0.45643   1.000
    H173    H    0.20554   0.02584   0.55554   1.000
    H174    H    0.25474   0.00000   0.43371   1.000
    H175    H    0.04041   0.92343   0.56574   1.000
    H176    H    0.02962   0.03181   0.63484   1.000
    H177    H    0.99752   0.82788   0.58909   1.000
    H178    H    0.17238   0.70931   0.50676   1.000
    H179    H    0.09795   0.78142   0.47326   1.000
    H180    H    0.12786   0.00633   0.44485   1.000
    H181    H    0.99058   0.03411   0.56383   1.000
    H182    H    0.03087   0.09956   0.57633   1.000
    H183    H    0.13903   0.70167   0.63697   1.000
    H184    H    0.46608   0.81932   0.55671   1.000
    H185    H    0.52691   0.70226   0.59120   1.000
    H186    H    0.42104   0.68575   0.58518   1.000
    H187    H    0.40204   0.74210   0.64784   1.000
    H188    H    0.57438   0.73343   0.46673   1.000
    H189    H    0.48788   0.80199   0.43729   1.000
    H190    H    0.46349   0.72421   0.45927   1.000
    H191    H    0.24483   0.20671   0.60957   1.000
    H192    H    0.28012   0.18414   0.40173   1.000
    H193    H    0.11986   0.32249   0.60708   1.000
    H194    H    0.15205   0.30056   0.40804   1.000
    H195    H    0.04087   0.72329   0.52522   1.000
    H196    H    0.00753   0.72055   0.65169   1.000
    H197    H    0.04956   0.77174   0.68848   1.000
    H198    H    0.08199   0.76393   0.92930   1.000
    H199    H    0.18936   0.42029   0.04366   1.000
    C200    C    0.40659   0.28636   0.05175   1.000
    C201    C    0.50793   0.21002   0.93700   1.000
    C202    C    0.40354   0.22207   0.04813   1.000
    N203    N    0.55421   0.99198   0.31635   1.000
    N204    N    0.36234   0.50733   0.18380   1.000
    N205    N    0.86895   0.68372   0.49246   1.000
    N206    N    0.54635   0.81633   0.00791   1.000
    N207    N    0.44578   0.00801   0.68366   1.000
    H208    H    0.91484   0.67178   0.91113   1.000
    H209    H    0.88928   0.79034   0.99364   1.000
    H210    H    0.85357   0.71809   0.02702   1.000
    H211    H    0.07927   0.49342   0.05530   1.000
    H212    H    0.08832   0.46570   0.93621   1.000
    H213    H    0.20621   0.40033   0.92370   1.000
    H214    H    0.97786   0.79822   0.86350   1.000
    H215    H    0.34235   0.68077   0.94360   1.000
    H216    H    0.32098   0.79779   0.90800   1.000
    H217    H    0.19267   0.81423   0.91502   1.000
    H218    H    0.29206   0.75782   0.85240   1.000
    H219    H    0.27559   0.76688   0.03338   1.000
    H220    H    0.22817   0.69826   0.06300   1.000
    H221    H    0.14811   0.77593   0.04096   1.000
    H222    H    0.55986   0.29338   0.89025   1.000
    H223    H    0.36571   0.31571   0.09800   1.000
    H224    H    0.54781   0.17755   0.89259   1.000
    H225    H    0.35988   0.19927   0.09157   1.000
    H226    H    0.79019   0.77618   0.97516   1.000
    H227    H    0.88005   0.77914   0.84866   1.000
    H228    H    0.00000   0.72817   0.81187   1.000
    C229    C    0.70411   0.96998   0.93056   1.000
    C230    C    0.81569   0.95476   0.89422   1.000
    C231    C    0.88012   0.95037   0.93151   1.000
    C232    C    0.98399   0.93813   0.89623   1.000
    C233    C    0.02438   0.93072   0.82610   1.000
    C234    C    0.95806   0.93514   0.79079   1.000
    C235    C    0.85379   0.94692   0.82363   1.000
    C236    C    0.83631   0.96095   0.00756   1.000
    C237    C    0.80071   0.03622   0.02485   1.000
    C238    C    0.90927   0.91906   0.04522   1.000
    C239    C    0.13705   0.91949   0.78943   1.000
    C240    C    0.15317   0.98242   0.74909   1.000
    C241    C    0.18857   0.85700   0.74386   1.000
    C242    C    0.78205   0.95409   0.78425   1.000
    C243    C    0.82789   0.90437   0.72540   1.000
    C244    C    0.74619   0.02709   0.75958   1.000
    C245    C    0.53106   0.99586   0.11988   1.000
    C246    C    0.54157   0.99429   0.18672   1.000
    C247    C    0.54918   0.93551   0.22607   1.000
    C248    C    0.54192   0.05165   0.21367   1.000
    C249    C    0.55484   0.93688   0.28997   1.000
    C250    C    0.54852   0.04804   0.27790   1.000
    C251    C    0.10490   0.53018   0.56949   1.000
    C252    C    0.16502   0.54537   0.60596   1.000
    C253    C    0.26217   0.54988   0.56880   1.000
    C254    C    0.31857   0.56209   0.60423   1.000
    C255    C    0.28159   0.56937   0.67438   1.000
    C256    C    0.18460   0.56480   0.70956   1.000
    C257    C    0.12493   0.55301   0.67657   1.000
    C258    C    0.30475   0.53943   0.49271   1.000
    C259    C    0.36136   0.46420   0.47529   1.000
    C260    C    0.37344   0.58141   0.45521   1.000
    C261    C    0.03365   0.47261   0.74043   1.000
    C262    C    0.14674   0.50381   0.38019   1.000
    C263    C    0.22252   0.50524   0.31343   1.000
    C264    C    0.21113   0.56399   0.27400   1.000
    C265    C    0.30670   0.44782   0.28660   1.000
    C266    C    0.28196   0.56250   0.21017   1.000
    C267    C    0.37392   0.45132   0.22230   1.000
    C268    C    0.63500   0.06946   0.46980   1.000
    C269    C    0.71027   0.10591   0.45466   1.000
    C270    C    0.81186   0.06874   0.45021   1.000
    C271    C    0.88049   0.10412   0.43797   1.000
    C272    C    0.85088   0.17423   0.43059   1.000
    C273    C    0.74940   0.20943   0.43506   1.000
    C274    C    0.67792   0.17649   0.44687   1.000
    C275    C    0.84388   0.99268   0.46077   1.000
    C276    C    0.82548   0.97538   0.53604   1.000
    C277    C    0.95436   0.95510   0.41885   1.000
    C278    C    0.92690   0.21104   0.41933   1.000
    C279    C    0.90279   0.25138   0.48228   1.000
    C280    C    0.93288   0.25663   0.35687   1.000
    C281    C    0.56692   0.21575   0.45417   1.000
    C282    C    0.55396   0.27457   0.40446   1.000
    C283    C    0.50660   0.24040   0.52720   1.000
    C284    C    0.65025   0.88011   0.49608   1.000
    C285    C    0.72728   0.81330   0.49460   1.000
    C286    C    0.77417   0.77388   0.43585   1.000
    C287    C    0.75436   0.78645   0.55201   1.000
    C288    C    0.84341   0.71001   0.43731   1.000
    C289    C    0.82495   0.72217   0.54847   1.000
    C290    C    0.67432   0.43056   0.02982   1.000
    C291    C    0.77077   0.39413   0.04496   1.000
    C292    C    0.83080   0.43138   0.04949   1.000
    C293    C    0.92243   0.39608   0.06170   1.000
    C294    C    0.95538   0.32596   0.06910   1.000
    C295    C    0.89351   0.29068   0.06450   1.000
    C296    C    0.80100   0.32355   0.05275   1.000
    C297    C    0.79751   0.50744   0.03903   1.000
    C298    C    0.83682   0.52484   0.96381   1.000
    C299    C    0.82868   0.54503   0.08106   1.000
    C300    C    0.05686   0.28926   0.08037   1.000
    C301    C    0.13568   0.24906   0.01737   1.000
    C302    C    0.04616   0.24357   0.14277   1.000
    C303    C    0.73637   0.28420   0.04554   1.000
    C304    C    0.73252   0.22545   0.09534   1.000
    C305    C    0.77324   0.25942   0.97250   1.000
    C306    C    0.52689   0.61993   0.00400   1.000
    C307    C    0.53592   0.68674   0.00500   1.000
    C308    C    0.48501   0.72610   0.06439   1.000
    C309    C    0.59340   0.71365   0.94827   1.000
    C310    C    0.49207   0.78998   0.06302   1.000
    C311    C    0.59645   0.77793   0.95188   1.000
    C312    C    0.29587   0.03002   0.06945   1.000
    C313    C    0.18429   0.04524   0.10578   1.000
    C314    C    0.11986   0.04964   0.06849   1.000
    C315    C    0.01599   0.06188   0.10377   1.000
    C316    C    0.97560   0.06929   0.17390   1.000
    C317    C    0.04192   0.06486   0.20922   1.000
    C318    C    0.14619   0.05309   0.17638   1.000
    C319    C    0.16367   0.03905   0.99245   1.000
    C320    C    0.19927   0.96379   0.97516   1.000
    C321    C    0.09072   0.08095   0.95478   1.000
    C322    C    0.86293   0.08052   0.21058   1.000
    C323    C    0.84681   0.01760   0.25092   1.000
    C324    C    0.81141   0.14301   0.25614   1.000
    C325    C    0.21793   0.04591   0.21576   1.000
    C326    C    0.17208   0.09564   0.27461   1.000
    C327    C    0.25379   0.97291   0.24043   1.000
    C328    C    0.46893   0.00414   0.88013   1.000
    C329    C    0.45842   0.00570   0.81329   1.000
    C330    C    0.45081   0.06448   0.77394   1.000
    C331    C    0.45807   0.94835   0.78634   1.000
    C332    C    0.44516   0.06311   0.71004   1.000
    C333    C    0.45147   0.95196   0.72203   1.000
    C334    C    0.89509   0.46982   0.43051   1.000
    C335    C    0.83497   0.45463   0.39405   1.000
    C336    C    0.73781   0.45012   0.43120   1.000
    C337    C    0.68141   0.43791   0.39577   1.000
    C338    C    0.71838   0.43064   0.32562   1.000
    C339    C    0.81538   0.43521   0.29044   1.000
    C340    C    0.87505   0.44700   0.32343   1.000
    C341    C    0.69523   0.46058   0.50729   1.000
    C342    C    0.63862   0.53580   0.52471   1.000
    C343    C    0.62654   0.41859   0.54480   1.000
    C344    C    0.65362   0.41941   0.28877   1.000
    C345    C    0.61508   0.48236   0.24846   1.000
    C346    C    0.70987   0.35699   0.24310   1.000
    C347    C    0.97877   0.45438   0.28421   1.000
    C348    C    0.04138   0.40468   0.22538   1.000
    C349    C    0.96633   0.52740   0.25958   1.000
    C350    C    0.85324   0.49619   0.61982   1.000
    C351    C    0.77746   0.49476   0.68658   1.000
    C352    C    0.78885   0.43602   0.72600   1.000
    C353    C    0.69329   0.55218   0.71341   1.000
    C354    C    0.71801   0.43750   0.78984   1.000
    C355    C    0.62606   0.54868   0.77768   1.000
    C356    C    0.36499   0.93054   0.53015   1.000
    C357    C    0.28972   0.89409   0.54535   1.000
    C358    C    0.18813   0.93126   0.54900   1.000
    C359    C    0.11950   0.89589   0.56200   1.000
    C360    C    0.14911   0.82577   0.56942   1.000
    C361    C    0.25059   0.79057   0.56494   1.000
    C362    C    0.32206   0.82351   0.55314   1.000
    C363    C    0.15611   0.00732   0.53923   1.000
    C364    C    0.17452   0.02462   0.46396   1.000
    C365    C    0.04563   0.04491   0.58115   1.000
    C366    C    0.07309   0.78897   0.58067   1.000
    C367    C    0.09719   0.74863   0.51772   1.000
    C368    C    0.06710   0.74338   0.64314   1.000
    C369    C    0.43307   0.78425   0.54584   1.000
    C370    C    0.44603   0.72544   0.59555   1.000
    C371    C    0.49339   0.75960   0.47280   1.000
    C372    C    0.34975   0.11989   0.50392   1.000
    C373    C    0.27272   0.18670   0.50540   1.000
    C374    C    0.22584   0.22613   0.56415   1.000
    C375    C    0.24564   0.21354   0.44800   1.000
    C376    C    0.15659   0.28999   0.56269   1.000
    C377    C    0.17504   0.27783   0.45153   1.000
    C378    C    0.32565   0.56945   0.97019   1.000
    C379    C    0.22920   0.60588   0.95505   1.000
    C380    C    0.16918   0.56863   0.95052   1.000
    C381    C    0.07754   0.60393   0.93824   1.000
    C382    C    0.04460   0.67405   0.93091   1.000
    C383    C    0.10647   0.70933   0.93544   1.000
    C384    C    0.19897   0.67646   0.94726   1.000
    C385    C    0.20247   0.49257   0.96098   1.000
    C386    C    0.16316   0.47517   0.03600   1.000
    C387    C    0.17130   0.45498   0.91895   1.000
    C388    C    0.94312   0.71075   0.91964   1.000
    C389    C    0.86430   0.75095   0.98263   1.000
    C390    C    0.95382   0.75643   0.85724   1.000
    C391    C    0.26361   0.71581   0.95440   1.000
    C392    C    0.26747   0.77456   0.90466   1.000
    C393    C    0.22673   0.74060   0.02742   1.000
    C394    C    0.47310   0.38008   0.99596   1.000
    C395    C    0.46408   0.31326   0.99442   1.000
    C396    C    0.51498   0.27390   0.93563   1.000
    N397    N    0.63763   0.49268   0.81612   1.000
    N398    N    0.13105   0.31628   0.50750   1.000
    N399    N    0.45365   0.18367   0.99210   1.000
    O400    O    0.66684   0.92178   0.95065   1.000
    O401    O    0.53435   0.94138   0.09630   1.000
    O402    O    0.64746   0.03221   0.94169   1.000
    O403    O    0.51697   0.05183   0.08682   1.000
    O404    O    0.03984   0.57837   0.54923   1.000
    O405    O    0.07232   0.55836   0.40353   1.000
    O406    O    0.12112   0.46795   0.55849   1.000
    O407    O    0.15519   0.44795   0.41340   1.000
    O408    O    0.61782   0.04925   0.42160   1.000
    O409    O    0.63011   0.90356   0.44157   1.000
    O410    O    0.58939   0.05839   0.53211   1.000
    O411    O    0.60326   0.91329   0.55199   1.000
    O412    O    0.58913   0.45069   0.07808   1.000
    O413    O    0.47596   0.59640   0.05859   1.000
    O414    O    0.67949   0.44175   0.96764   1.000
    O415    O    0.56840   0.58685   0.94810   1.000
    O416    O    0.33315   0.07822   0.04935   1.000
    O417    O    0.46564   0.05862   0.90371   1.000
    O418    O    0.35252   0.96779   0.05832   1.000
    O419    O    0.48302   0.94817   0.91319   1.000
    O420    O    0.96014   0.42163   0.45078   1.000
    O421    O    0.92766   0.44164   0.59648   1.000
    O422    O    0.87886   0.53205   0.44152   1.000
    O423    O    0.84479   0.55205   0.58661   1.000
    O424    O    0.38217   0.95076   0.57833   1.000
    O425    O    0.36989   0.09644   0.55844   1.000
    O426    O    0.41061   0.94161   0.46790   1.000
    O427    O    0.39674   0.08671   0.44800   1.000
    O428    O    0.41084   0.54931   0.92193   1.000
    O429    O    0.52402   0.40361   0.94142   1.000
    O430    O    0.32049   0.55827   0.03237   1.000
    O431    O    0.43158   0.41316   0.05180   1.000
loop_
    _geom_bond_atom_site_label_1
    _geom_bond_atom_site_label_2
    _geom_bond_distance
    _geom_bond_site_symmetry_2
    _ccdc_geom_bond_type
    H88    C301      1.16249      .   S
    H3     C237      1.12013      .   S
    C306   C307      1.46995      .   S
    C306   O413      1.29148      .   S
    C306   O415      1.28984  1_554   S
    C307   C308      1.41438      .   S
    C307   C309      1.39704  1_554   S
    H9     C237      1.10004      .   S
    C236   C237      1.54091  1_565   S
    C236   H2        1.10322      .   S
    C236   C238      1.53352      .   S
    C236   C231      1.52394  1_554   S
    N206   C310      1.34911      .   S
    N206   C311      1.34889  1_554   S
    C301   H109      1.09889      .   S
    C301   C300      1.53806      .   S
    C301   H89       1.09865  1_554   S
    C237   H1        1.10014      .   S
    H210   C389      1.09879  1_554   S
    C393   H219      1.09989      .   S
    C393   H221      1.10038      .   S
    C393   H220      1.09824      .   S
    C393   C391      1.54040  1_554   S
    C290   C291      1.49343      .   S
    C290   O412      1.28490      .   S
    C290   O414      1.28923  1_554   S
    H5     C238      1.09871      .   S
    O430   C378      1.28922  1_554   S
    H10    C238      1.09793      .   S
    C386   H199      1.10079      .   S
    C386   H211      1.10011      .   S
    C386   H93       1.09984      .   S
    C386   C385      1.53659  1_554   S
    C297   C292      1.52427      .   S
    C297   H83       1.10321      .   S
    C297   C299      1.53355      .   S
    C297   C298      1.54028  1_554   S
    C291   C292      1.40968      .   S
    C291   C296      1.40978      .   S
    C238   H11       1.09934      .   S
    C303   C296      1.52347      .   S
    C303   H98       1.10258      .   S
    C303   C304      1.53391      .   S
    C303   C305      1.54075  1_554   S
    C202   C200      1.38976      .   S
    C202   H225      1.09206      .   S
    C202   N399      1.34891  1_554   S
    O416   C312      1.28481      .   S
    C292   C293      1.39956      .   S
    C200   H223      1.08831      .   S
    C200   C395      1.40469  1_554   S
    O431   C394      1.28883  1_554   S
    C296   C295      1.39820      .   S
    O418   C312      1.28996  1_565   S
    C293   H85       1.09138      .   S
    C293   C294      1.40005      .   S
    C310   C308      1.38853      .   S
    C310   H107      1.09203      .   S
    H91    C299      1.09937      .   S
    C308   H105      1.08850      .   S
    C295   C294      1.40103      .   S
    C295   H81       1.09089      .   S
    C314   C315      1.40022      .   S
    C314   C313      1.40967      .   S
    C314   C319      1.52375  1_554   S
    C294   C300      1.52029  1_655   S
    C312   C313      1.49345      .   S
    H116   C315      1.09120  1_655   S
    H96    C299      1.09923      .   S
    C300   H87       1.10363      .   S
    C300   C302      1.53556      .   S
    C299   H86       1.09865      .   S
    H100   C304      1.09933      .   S
    O403   C245      1.29108  1_545   S
    H99    C304      1.09957      .   S
    C304   H101      1.09864      .   S
    O401   C245      1.29063      .   S
    C315   C316      1.39987  1_455   S
    C313   C318      1.40990      .   S
    C245   C246      1.47187      .   S
    H97    C302      1.09912      .   S
    C302   H110      1.09962      .   S
    C302   H111      1.09856  1_455   S
    H118   C322      1.10356      .   S
    C316   C317      1.40102  1_655   S
    C316   C322      1.51987      .   S
    C318   C317      1.39879      .   S
    C318   C325      1.52338      .   S
    H49    C266      1.09215      .   S
    H130   C325      1.10261      .   S
    N204   C266      1.34943      .   S
    N204   C267      1.34987      .   S
    H21    C248      1.08907      .   S
    H159   C348      1.09946      .   S
    C246   C248      1.40528  1_565   S
    C246   C247      1.40457      .   S
    H135   C327      1.09836      .   S
    H50    C267      1.09188      .   S
    H156   C346      1.09907      .   S
    H158   C348      1.09962      .   S
    H20    C247      1.08855      .   S
    H151   C345      1.09938      .   S
    C317   H112      1.09059      .   S
    C266   C264      1.38844      .   S
    C322   C323      1.53800      .   S
    C322   C324      1.53543      .   S
    C248   C250      1.38813      .   S
    C325   C327      1.53976  1_545   S
    C325   C326      1.53398      .   S
    H120   C323      1.09934  1_565   S
    H169   C346      1.09953      .   S
    C267   C265      1.39031      .   S
    H168   C345      1.09884      .   S
    H163   C349      1.10046      .   S
    C348   H160      1.09852      .   S
    C348   C347      1.53385  1_455   S
    C247   C249      1.38863      .   S
    H143   C324      1.09865      .   S
    H161   C349      1.10031  1_455   S
    H144   C339      1.09069      .   S
    C327   H134      1.09982      .   S
    C327   H136      1.10036      .   S
    C346   H170      1.09874      .   S
    C346   C344      1.53555      .   S
    C345   H152      1.09920      .   S
    C345   C344      1.53810      .   S
    C323   H141      1.09882      .   S
    C323   H119      1.10133      .   S
    C324   H142      1.09965      .   S
    C324   H129      1.09913      .   S
    H133   C326      1.09857      .   S
    C349   C347      1.53960      .   S
    C349   H162      1.09822      .   S
    C264   H47       1.08864      .   S
    C264   C263      1.40477      .   S
    C326   H131      1.09959      .   S
    C326   H132      1.09936      .   S
    C250   H23       1.09284      .   S
    C250   N203      1.35018  1_545   S
    C347   H157      1.10284  1_655   S
    C347   C340      1.52335      .   S
    C265   C263      1.40513      .   S
    C265   H48       1.08903      .   S
    C344   C338      1.51986      .   S
    C344   H150      1.10362      .   S
    C249   N203      1.34903      .   S
    C249   H22       1.09211      .   S
    C339   C340      1.39876      .   S
    C339   C338      1.40055      .   S
    H80    C280      1.09913      .   S
    C263   C262      1.47200      .   S
    C340   C335      1.40986      .   S
    C338   C337      1.39991      .   S
    H79    C280      1.09962      .   S
    H70    C282      1.09861      .   S
    C280   H66       1.09910      .   S
    C280   C278      1.53544      .   S
    H59    C277      1.09865      .   S
    C262   O405      1.29081      .   S
    C262   O407      1.29072      .   S
    H74    C286      1.08919      .   S
    H76    C288      1.09214      .   S
    C335   C334      1.49338      .   S
    C335   C336      1.40965      .   S
    C337   H148      1.09091      .   S
    C337   C336      1.40026      .   S
    H38    C260      1.09932      .   S
    H192   C375      1.08911      .   S
    C282   H68       1.09968      .   S
    C282   H69       1.09938      .   S
    C282   C281      1.53380      .   S
    H194   C377      1.09204      .   S
    H60    C278      1.07850  1_455   S
    C277   H65       1.09920      .   S
    C277   H64       1.09986  1_655   S
    C277   C275      1.53354      .   S
    C278   C272      1.51986      .   S
    C278   C279      1.53805      .   S
    H28    C259      1.10006      .   S
    O408   C268      1.28518      .   S
    H54    C273      1.09073      .   S
    C334   O422      1.28975      .   S
    C334   O420      1.28508      .   S
    C272   C273      1.40056      .   S
    C272   C271      1.39989      .   S
    C336   C341      1.52437      .   S
    H174   C364      1.10149      .   S
    H58    C271      1.09090      .   S
    C273   C274      1.39879      .   S
    C286   C288      1.38869      .   S
    C286   C285      1.40459      .   S
    H189   C371      1.09826      .   S
    C288   N205      1.34903      .   S
    C271   C270      1.40023      .   S
    O409   C284      1.29048      .   S
    H67    C281      1.10260      .   S
    H56    C275      1.10321      .   S
    H180   C364      1.09997      .   S
    C274   C281      1.52341      .   S
    C274   C269      1.40976      .   S
    C375   C377      1.38980      .   S
    C375   C373      1.40514      .   S
    O427   C372      1.29111      .   S
    C270   C269      1.40967      .   S
    C270   C275      1.52449  1_545   S
    C377   N398      1.34845      .   S
    C281   C283      1.53956      .   S
    C269   C268      1.49364      .   S
    C260   H37       1.09937      .   S
    C260   H32       1.09871      .   S
    C260   C258      1.53350      .   S
    H172   C364      1.10022      .   S
    H190   C371      1.10035      .   S
    C275   C276      1.54071      .   S
    C364   C363      1.54069      .   S
    H188   C371      1.09988      .   S
    O426   C356      1.28982      .   S
    C268   O410      1.29086      .   S
    C371   C369      1.53974      .   S
    H179   C367      1.09917      .   S
    H29    C258      1.10310      .   S
    H78    C279      1.09883      .   S
    C259   C258      1.54078      .   S
    C259   H36       1.10007      .   S
    C259   H30       1.09673      .   S
    C279   H61       1.09941      .   S
    C279   H62       1.09917      .   S
    N205   C289      1.34908      .   S
    C258   C253      1.52437      .   S
    C285   C284      1.47196      .   S
    C285   C287      1.40532      .   S
    C284   O411      1.29093      .   S
    H147   C342      1.09679      .   S
    C372   C373      1.47195      .   S
    C372   O425      1.29068      .   S
    C373   C374      1.40463      .   S
    H153   C342      1.10008      .   S
    H178   C367      1.09941      .   S
    C341   C342      1.54080      .   S
    C341   H146      1.10323      .   S
    C341   C343      1.53353      .   S
    N398   C376      1.34981      .   S
    C367   H195      1.09877      .   S
    C367   C366      1.53806      .   S
    C342   H145      1.10026      .   S
    C283   H71       1.09988      .   S
    C283   H73       1.10038      .   S
    C283   H72       1.09837      .   S
    C356   C357      1.49351      .   S
    C356   O424      1.28479      .   S
    H149   C343      1.09876      .   S
    H154   C343      1.09937      .   S
    C276   H55       1.10022      .   S
    C276   H63       1.10012      .   S
    C276   H57       1.09675      .   S
    C363   C358      1.52246  1_545   S
    C363   H173      1.10332      .   S
    C363   C365      1.53354      .   S
    C343   H155      1.09911      .   S
    C357   C358      1.41378      .   S
    C357   C362      1.40976      .   S
    C369   C362      1.52339      .   S
    C369   H184      1.10257      .   S
    C369   C370      1.53383      .   S
    C289   C287      1.38978      .   S
    C289   H77       1.09204      .   S
    C358   C359      1.39818      .   S
    O404   C251      1.28503      .   S
    C287   H75       1.08908      .   S
    C362   C361      1.39880      .   S
    O406   C251      1.28973      .   S
    C359   H175      1.09072      .   S
    C359   C360      1.39999      .   S
    C376   C374      1.38868      .   S
    C376   H193      1.09217      .   S
    H181   C365      1.09985  1_655   S
    C374   H191      1.08860      .   S
    C361   C360      1.40051      .   S
    C361   H171      1.09075      .   S
    C253   C254      1.40027      .   S
    C253   C252      1.40969      .   S
    C360   C366      1.51988      .   S
    C251   C252      1.49350      .   S
    H182   C365      1.09920      .   S
    H31    C254      1.09089      .   S
    C366   H177      1.10364  1_455   S
    C366   C368      1.53560      .   S
    C365   H176      1.09864      .   S
    H186   C370      1.09945      .   S
    O423   C350      1.29070      .   S
    H185   C370      1.09956      .   S
    C370   H187      1.09861      .   S
    O421   C350      1.29081      .   S
    C254   C255      1.39992      .   S
    C252   C257      1.40968      .   S
    C350   C351      1.47201      .   S
    H183   C368      1.09908      .   S
    C368   H196      1.09965      .   S
    C368   H197      1.09859      .   S
    H33    C124      1.10361      .   S
    C255   C256      1.40054      .   S
    C255   C124      1.51987      .   S
    C257   C256      1.39877      .   S
    C257   C127      1.52338      .   S
    H139   C332      1.09313      .   S
    H40    C127      1.10301  1_655   S
    N207   C332      1.34905      .   S
    N207   C333      1.34929  1_545   S
    H165   C353      1.08913      .   S
    H15    C243      1.09992      .   S
    C351   C353      1.40515      .   S
    C351   C352      1.40463      .   S
    H45    C261      1.09826      .   S
    H140   C333      1.09194      .   S
    H12    C241      1.09914      .   S
    H14    C243      1.09960      .   S
    H164   C352      1.08860      .   S
    C256   H27       1.09089      .   S
    H7     C240      1.09928      .   S
    C332   C330      1.38862      .   S
    C124   C125      1.53809      .   S
    C124   C126      1.53555      .   S
    C353   C355      1.38986      .   S
    C127   C261      1.53959      .   S
    C127   C128      1.53346  1_455   S
    H35    C125      1.09922      .   S
    H25    C241      1.09973      .   S
    C333   C331      1.38982      .   S
    H24    C240      1.09882      .   S
    H19    C244      1.10037      .   S
    C243   H16       1.09860      .   S
    C243   C242      1.53395      .   S
    C352   C354      1.38859      .   S
    H53    C126      1.09863      .   S
    H17    C244      1.09982      .   S
    H0     C234      1.09078      .   S
    C261   H44       1.10031  1_455   S
    C261   H46       1.10045      .   S
    C241   H26       1.09859      .   S
    C241   C239      1.53549      .   S
    C240   H8        1.09930  1_565   S
    C240   C239      1.53806      .   S
    C125   H51       1.09882      .   S
    C125   H34       1.09940      .   S
    C126   H52       1.09865      .   S
    C126   H39       1.09907      .   S
    H43    C128      1.09870      .   S
    C244   C242      1.53977  1_545   S
    C244   H18       1.09835      .   S
    C330   H137      1.08859      .   S
    C330   C329      1.40456      .   S
    C128   H41       1.09968      .   S
    C128   H42       1.09983      .   S
    C355   H167      1.09201      .   S
    C355   N397      1.34915      .   S
    C242   H13       1.10218      .   S
    C242   C235      1.52340      .   S
    C331   C329      1.40530  1_565   S
    C331   H138      1.08907      .   S
    C239   C233      1.51982      .   S
    C239   H6        1.10358      .   S
    C354   N397      1.34905      .   S
    C354   H166      1.09212      .   S
    C234   C235      1.39879      .   S
    C234   C233      1.40087  1_655   S
    H228   C390      1.07027  1_455   S
    C329   C328      1.47186      .   S
    C235   C230      1.40970      .   S
    C233   C232      1.39987  1_455   S
    H227   C390      1.09962      .   S
    H218   C392      1.09866      .   S
    C390   H214      1.09905      .   S
    C390   C388      1.53553      .   S
    H95    C387      1.09885      .   S
    C328   O417      1.29063      .   S
    C328   O419      1.29106  1_545   S
    H222   C396      1.08864      .   S
    H224   C201      1.09220      .   S
    C230   C229      1.49347      .   S
    C230   C231      1.40968      .   S
    C232   H4        1.09137  1_655   S
    C232   C231      1.40021      .   S
    H123   C321      1.09916      .   S
    H106   C309      1.08912      .   S
    C392   H216      1.09245      .   S
    C392   H217      1.09942      .   S
    C392   C391      1.53312      .   S
    H108   C311      1.09193      .   S
    H208   C388      1.10366      .   S
    C387   H213      1.09916      .   S
    C387   H212      1.09937      .   S
    C387   C385      1.53353      .   S
    C388   C382      1.52030  1_655   S
    C388   C389      1.53793      .   S
    H113   C320      1.10034      .   S
    O428   C378      1.28490      .   S
    H198   C383      1.09076      .   S
    C229   O402      1.28995  1_565   S
    C229   O400      1.28478      .   S
    C382   C383      1.40050      .   S
    C382   C381      1.39988      .   S
    H84    C298      1.09676      .   S
    H94    C381      1.09085      .   S
    C383   C384      1.39888      .   S
    C396   C201      1.38855      .   S
    C396   C395      1.40459      .   S
    C201   N399      1.34898      .   S
    H103   C305      1.09727      .   S
    C381   C380      1.40024      .   S
    O429   C394      1.29080      .   S
    H215   C391      1.10269      .   S
    H92    C385      1.10320      .   S
    H90    C298      1.10003      .   S
    C384   C391      1.52291      .   S
    C384   C379      1.40978      .   S
    C309   C311      1.38972      .   S
    C380   C379      1.40967      .   S
    C380   C385      1.52427      .   S
    C321   H122      1.09939      .   S
    C321   H117      1.09830      .   S
    C321   C319      1.53365      .   S
    C379   C378      1.49341      .   S
    H82    C298      1.10019      .   S
    H104   C305      1.10043      .   S
    H102   C305      1.09912      .   S
    H114   C319      1.10323      .   S
    C320   C319      1.54091  1_565   S
    C320   H121      1.10003      .   S
    C320   H115      1.09234      .   S
    H226   C389      1.09880      .   S
    C389   H209      1.09940      .   S
    C395   C394      1.47187      .   S
