# CIF file generated by openbabel 2.4.90, see http://openbabel.sf.net
data_I
_chemical_name_common ''
_cell_length_a 14.809
_cell_length_b 21.175
_cell_length_c 21.172
_cell_angle_alpha 83.049
_cell_angle_beta 69.624
_cell_angle_gamma 69.642
_space_group_name_H-M_alt 'P 1'
_space_group_name_Hall 'P 1'
loop_
    _symmetry_equiv_pos_as_xyz
    x,y,z
loop_
    _atom_site_label
    _atom_site_type_symbol
    _atom_site_fract_x
    _atom_site_fract_y
    _atom_site_fract_z
    _atom_site_occupancy
    Mo0     Mo   0.96098   0.55239   0.49527   1.000
    Mo1     Mo   0.51296   0.99533   0.44761   1.000
    Mo2     Mo   0.45635   0.50457   0.05241   1.000
    Mo3     Mo   0.49158   0.05239   0.99540   1.000
    Mo4     Mo   0.03900   0.44761   0.50473   1.000
    Mo5     Mo   0.48703   0.00467   0.55239   1.000
    Mo6     Mo   0.54362   0.49544   0.94760   1.000
    Mo7     Mo   0.50841   0.94761   0.00453   1.000
loop_
    _geom_bond_atom_site_label_1
    _geom_bond_atom_site_label_2
    _geom_bond_distance
    _geom_bond_site_symmetry_2
    _ccdc_geom_bond_type
    Mo7    Mo3       2.13722  1_564   S
    Mo0    Mo4       2.13716  1_655   S
    Mo1    Mo5       2.13731  1_565   S
    Mo2    Mo6       2.13652  1_554   S
