# CIF file generated by openbabel 2.4.90, see http://openbabel.sf.net
data_I
_chemical_name_common ''
_cell_length_a 14.809
_cell_length_b 21.175
_cell_length_c 21.172
_cell_angle_alpha 83.049
_cell_angle_beta 69.624
_cell_angle_gamma 69.642
_space_group_name_H-M_alt 'P 1'
_space_group_name_Hall 'P 1'
loop_
    _symmetry_equiv_pos_as_xyz
    x,y,z
loop_
    _atom_site_label
    _atom_site_type_symbol
    _atom_site_fract_x
    _atom_site_fract_y
    _atom_site_fract_z
    _atom_site_occupancy
    Zr0     Zr   0.50841   0.94761   0.00453   1.000
    Zr1     Zr   0.96098   0.55239   0.49527   1.000
    Zr2     Zr   0.51296   0.99533   0.44761   1.000
    Zr3     Zr   0.45635   0.50457   0.05241   1.000
    Zr4     Zr   0.49158   0.05239   0.99540   1.000
    Zr5     Zr   0.03900   0.44761   0.50473   1.000
    Zr6     Zr   0.48703   0.00467   0.55239   1.000
    Zr7     Zr   0.54362   0.49544   0.94760   1.000
    O8      O    0.49999   0.00000   0.99996   1.000
    O9      O    0.99999   0.50000   0.50000   1.000
    O10     O    0.50000   0.00000   0.50000   1.000
    O11     O    0.49999   0.50001   0.00000   1.000
    N12     N    0.08379   0.04802   0.14626   1.000
    O13     O    0.24808   0.05667   0.08432   1.000
    O14     O    0.25713   0.00286   0.08884   1.000
    N15     N    0.22969   0.85348   0.54825   1.000
    O16     O    0.34574   0.91097   0.50300   1.000
    O17     O    0.33215   0.91560   0.55681   1.000
    N18     N    0.77024   0.14649   0.45173   1.000
    O19     O    0.66782   0.08439   0.44317   1.000
    O20     O    0.65423   0.08901   0.49699   1.000
    N21     N    0.22210   0.54826   0.64658   1.000
    O22     O    0.15108   0.50302   0.58909   1.000
    O23     O    0.11125   0.55682   0.58441   1.000
    N24     N    0.86823   0.35364   0.04786   1.000
    O25     O    0.73989   0.41112   0.00274   1.000
    O26     O    0.69549   0.41563   0.05655   1.000
    N27     N    0.25483   0.50569   0.28262   1.000
    O28     O    0.13574   0.53053   0.36601   1.000
    O29     O    0.17596   0.47674   0.37084   1.000
    O30     O    0.33209   0.50582   0.20036   1.000
    N31     N    0.77788   0.45175   0.35342   1.000
    O32     O    0.84890   0.49699   0.41091   1.000
    O33     O    0.88873   0.44319   0.41559   1.000
    N34     N    0.13151   0.64637   0.95196   1.000
    O35     O    0.25997   0.58890   0.99717   1.000
    O36     O    0.30437   0.58438   0.94336   1.000
    N37     N    0.91619   0.95182   0.85368   1.000
    O38     O    0.74286   0.99706   0.91111   1.000
    O39     O    0.75191   0.94326   0.91563   1.000
    N40     N    0.75999   0.78251   0.49415   1.000
    O41     O    0.66576   0.86597   0.46937   1.000
    O42     O    0.65257   0.87074   0.52317   1.000
    O43     O    0.83748   0.70028   0.49401   1.000
    N44     N    0.24001   0.21749   0.50585   1.000
    O45     O    0.16252   0.29972   0.50598   1.000
    O46     O    0.34743   0.12926   0.47683   1.000
    O47     O    0.33424   0.13403   0.53063   1.000
    N48     N    0.46252   0.28246   0.99389   1.000
    O49     O    0.45324   0.37067   0.02300   1.000
    O50     O    0.49817   0.36599   0.96920   1.000
    O51     O    0.46757   0.20025   0.99382   1.000
    N52     N    0.54361   0.99381   0.21752   1.000
    O53     O    0.53860   0.99373   0.29975   1.000
    O54     O    0.53249   0.96915   0.13397   1.000
    O55     O    0.52394   0.02296   0.12932   1.000
    N56     N    0.53747   0.71754   0.00606   1.000
    O57     O    0.50181   0.63401   0.03078   1.000
    O58     O    0.54674   0.62934   0.97695   1.000
    O59     O    0.53243   0.79975   0.00614   1.000
    N60     N    0.45638   0.00619   0.78247   1.000
    O61     O    0.47605   0.97704   0.87067   1.000
    O62     O    0.46750   0.03085   0.86601   1.000
    O63     O    0.46140   0.00627   0.70025   1.000
    N64     N    0.74515   0.49431   0.71737   1.000
    O65     O    0.66789   0.49418   0.79962   1.000
    O66     O    0.82402   0.52326   0.62916   1.000
    O67     O    0.86424   0.46947   0.63399   1.000
loop_
    _geom_bond_atom_site_label_1
    _geom_bond_atom_site_label_2
    _geom_bond_distance
    _geom_bond_site_symmetry_2
    _ccdc_geom_bond_type
    Zr0    O8        1.06862  1_564   S
    Zr4    O8        1.06860      .   S
    Zr1    O9        1.06858      .   S
    Zr5    O9        1.06858  1_455   S
    Zr2    O10       1.06866  1_565   S
    Zr6    O10       1.06865      .   S
    Zr3    O11       1.06826      .   S
    Zr7    O11       1.06826  1_556   S
    N12    O13       2.38797      .   S
    Zr4    O13       3.41216  1_556   S
    N12    O14       2.31993      .   S
    Zr0    O14       3.35461  1_565   S
    N15    O16       2.31956      .   S
    Zr2    O16       3.35366      .   S
    N15    O17       2.38803      .   S
    Zr6    O17       3.41257  1_545   S
    N18    O19       2.38742      .   S
    Zr2    O19       3.41174  1_565   S
    N18    O20       2.31896      .   S
    Zr6    O20       3.35303      .   S
    N21    O22       2.31934      .   S
    Zr5    O22       3.35378      .   S
    N21    O23       2.38728      .   S
    Zr1    O23       3.41114  1_655   S
    N24    O25       2.31934      .   S
    Zr7    O25       3.35358  1_556   S
    N24    O26       2.38651      .   S
    Zr3    O26       3.41047      .   S
    N27    O28       1.97864      .   S
    Zr1    O28       2.99039  1_655   S
    N27    O29       1.98258      .   S
    Zr5    O29       2.99548      .   S
    N27    O30       1.71921      .   S
    Zr3    O30       3.02848      .   S
    N31    O32       2.31933      .   S
    Zr1    O32       3.35370      .   S
    N31    O33       2.38730      .   S
    Zr5    O33       3.41110  1_455   S
    N34    O35       2.32200      .   S
    Zr3    O35       3.35619  1_554   S
    N34    O36       2.38848      .   S
    Zr7    O36       3.41262      .   S
    N37    O38       2.32011      .   S
    Zr4    O38       3.35451  1_545   S
    N37    O39       2.38738      .   S
    Zr0    O39       3.41158  1_554   S
    N40    O41       1.97879      .   S
    Zr2    O41       2.99052      .   S
    N40    O42       1.98201      .   S
    Zr6    O42       2.99433  1_545   S
    N40    O43       1.71960      .   S
    Zr1    O43       3.03014      .   S
    N44    O45       1.71964      .   S
    Zr5    O45       3.03014      .   S
    N44    O46       1.98201      .   S
    Zr2    O46       2.99433  1_565   S
    N44    O47       1.97882      .   S
    Zr6    O47       2.99052      .   S
    N48    O49       1.98188  1_556   S
    Zr3    O49       2.99464      .   S
    N48    O50       1.97845      .   S
    Zr7    O50       2.99019      .   S
    N48    O51       1.71651      .   S
    Zr4    O51       3.02294      .   S
    N52    O53       1.71634      .   S
    Zr2    O53       3.02228      .   S
    N52    O54       1.97867      .   S
    Zr0    O54       2.99034      .   S
    N52    O55       1.98195  1_565   S
    Zr4    O55       2.99459  1_556   S
    N56    O57       1.97848      .   S
    Zr3    O57       2.99016      .   S
    N56    O58       1.98184  1_554   S
    Zr7    O58       2.99423      .   S
    N56    O59       1.71648      .   S
    Zr0    O59       3.02280      .   S
    N60    O61       1.98166  1_545   S
    Zr0    O61       2.99347  1_554   S
    N60    O62       1.97839      .   S
    Zr4    O62       2.98922      .   S
    N60    O63       1.71625      .   S
    Zr6    O63       3.02228      .   S
    N64    O65       1.71893      .   S
    Zr7    O65       3.02897      .   S
    N64    O66       1.98252      .   S
    Zr1    O66       2.99549      .   S
    N64    O67       1.97860      .   S
    Zr5    O67       2.99042  1_455   S
