# CIF file generated by openbabel 2.4.90, see http://openbabel.sf.net
data_I
_chemical_name_common ''
_cell_length_a 17.924
_cell_length_b 17.979
_cell_length_c 13.775
_cell_angle_alpha 73.331
_cell_angle_beta 71.911
_cell_angle_gamma 81.632
_space_group_name_H-M_alt 'P 1'
_space_group_name_Hall 'P 1'
loop_
    _symmetry_equiv_pos_as_xyz
    x,y,z
loop_
    _atom_site_label
    _atom_site_type_symbol
    _atom_site_fract_x
    _atom_site_fract_y
    _atom_site_fract_z
    _atom_site_occupancy
    N0      N    0.56863   0.99051   0.80352   1.000
    N1      N    0.06857   0.99051   0.80352   1.000
    N2      N    0.56863   0.49051   0.80353   1.000
    N3      N    0.06857   0.49051   0.80353   1.000
    N4      N    0.47327   0.06688   0.26150   1.000
    N5      N    0.47327   0.56687   0.26151   1.000
    N6      N    0.97327   0.06688   0.26144   1.000
    N7      N    0.97327   0.56687   0.26150   1.000
    N8      N    0.22160   0.31648   0.26253   1.000
    N9      N    0.22160   0.81647   0.26255   1.000
    N10     N    0.72160   0.31648   0.26251   1.000
    N11     N    0.72159   0.81647   0.26254   1.000
    Zr12    Zr   0.72238   0.56572   0.26408   1.000
    O13     O    0.66716   0.54362   0.44612   1.000
    O14     O    0.82569   0.55022   0.10189   1.000
    Zr15    Zr   0.72239   0.06573   0.26408   1.000
    O16     O    0.66716   0.04363   0.44612   1.000
    O17     O    0.82569   0.05022   0.10189   1.000
    Zr18    Zr   0.22239   0.56572   0.26408   1.000
    O19     O    0.16715   0.54362   0.44612   1.000
    O20     O    0.32571   0.55022   0.10189   1.000
    Zr21    Zr   0.22239   0.06573   0.26408   1.000
    O22     O    0.16715   0.04363   0.44612   1.000
    O23     O    0.32571   0.05022   0.10189   1.000
    O24     O    0.64688   0.06751   0.25932   1.000
    O25     O    0.29856   0.06483   0.26694   1.000
    O26     O    0.72211   0.14320   0.26041   1.000
    O27     O    0.79855   0.06483   0.26692   1.000
    O28     O    0.72221   0.98881   0.26650   1.000
    O29     O    0.22212   0.64319   0.26042   1.000
    O30     O    0.29856   0.56482   0.26694   1.000
    O31     O    0.22222   0.48881   0.26649   1.000
    O32     O    0.14688   0.56749   0.25932   1.000
    O33     O    0.72221   0.48881   0.26649   1.000
    O34     O    0.64688   0.56749   0.25932   1.000
    O35     O    0.72211   0.64319   0.26042   1.000
    O36     O    0.79855   0.56482   0.26693   1.000
    O37     O    0.22222   0.98881   0.26650   1.000
    O38     O    0.14688   0.06751   0.25930   1.000
    O39     O    0.22212   0.14320   0.26041   1.000
loop_
    _geom_bond_atom_site_label_1
    _geom_bond_atom_site_label_2
    _geom_bond_distance
    _geom_bond_site_symmetry_2
    _ccdc_geom_bond_type
    Zr12   O13       2.32968      .   S
    N2     O13       4.54570      .   S
    Zr12   O14       2.47703      .   S
    N3     O14       5.20160  1_456   S
    Zr15   O16       2.32968      .   S
    N0     O16       4.54568  1_565   S
    Zr15   O17       2.47705      .   S
    N1     O17       5.20163  1_466   S
    Zr18   O19       2.32972      .   S
    N3     O19       4.54577      .   S
    Zr18   O20       2.47714      .   S
    N2     O20       5.20199  1_556   S
    Zr21   O22       2.32971      .   S
    N1     O22       4.54574  1_565   S
    Zr21   O23       2.47715      .   S
    N0     O23       5.20202  1_566   S
    N4     O24       3.10410      .   S
    Zr15   O24       1.37055      .   S
    N4     O25       3.11455      .   S
    Zr21   O25       1.37551      .   S
    Zr15   O26       1.37849      .   S
    N10    O26       3.12254      .   S
    Zr15   O27       1.37546      .   S
    N6     O27       3.11443      .   S
    Zr15   O28       1.37424  1_545   S
    N11    O28       3.11622      .   S
    Zr18   O29       1.37852      .   S
    N9     O29       3.12266      .   S
    Zr18   O30       1.37551      .   S
    N5     O30       3.11456      .   S
    Zr18   O31       1.37410      .   S
    N8     O31       3.11596      .   S
    Zr18   O32       1.37060      .   S
    N7     O32       3.10424  1_655   S
    Zr12   O33       1.37410      .   S
    N10    O33       3.11605      .   S
    Zr12   O34       1.37055      .   S
    N5     O34       3.10410      .   S
    Zr12   O35       1.37851      .   S
    N11    O35       3.12263      .   S
    Zr12   O36       1.37553      .   S
    N7     O36       3.11460      .   S
    N9     O37       3.11619      .   S
    Zr21   O37       1.37423  1_545   S
    Zr21   O38       1.37068      .   S
    N6     O38       3.10440  1_655   S
    Zr21   O39       1.37851      .   S
    N8     O39       3.12261      .   S
