# CIF file generated by openbabel 2.4.90, see http://openbabel.sf.net
data_I
_chemical_name_common ''
_cell_length_a 17.924
_cell_length_b 17.979
_cell_length_c 13.775
_cell_angle_alpha 73.331
_cell_angle_beta 71.911
_cell_angle_gamma 81.632
_space_group_name_H-M_alt 'P 1'
_space_group_name_Hall 'P 1'
loop_
    _symmetry_equiv_pos_as_xyz
    x,y,z
loop_
    _atom_site_label
    _atom_site_type_symbol
    _atom_site_fract_x
    _atom_site_fract_y
    _atom_site_fract_z
    _atom_site_occupancy
    N0      N    0.56863   0.99051   0.80352   1.000
    N1      N    0.06857   0.99051   0.80352   1.000
    N2      N    0.56863   0.49051   0.80353   1.000
    N3      N    0.06857   0.49051   0.80353   1.000
    N4      N    0.47327   0.06688   0.26150   1.000
    N5      N    0.47327   0.56687   0.26151   1.000
    N6      N    0.97327   0.06688   0.26144   1.000
    N7      N    0.97327   0.56687   0.26150   1.000
    N8      N    0.22160   0.31648   0.26253   1.000
    N9      N    0.22160   0.81647   0.26255   1.000
    N10     N    0.72160   0.31648   0.26251   1.000
    N11     N    0.72159   0.81647   0.26254   1.000
    Zr12    Zr   0.72238   0.56572   0.26408   1.000
    O13     O    0.71433   0.64045   0.28543   1.000
    O14     O    0.71635   0.48582   0.29172   1.000
    O15     O    0.64015   0.56368   0.28456   1.000
    O16     O    0.66716   0.54362   0.44612   1.000
    O17     O    0.79165   0.56285   0.29193   1.000
    O18     O    0.65360   0.57131   0.23408   1.000
    O19     O    0.82569   0.55022   0.10189   1.000
    O20     O    0.72988   0.64592   0.23540   1.000
    O21     O    0.80545   0.56678   0.24194   1.000
    O22     O    0.72807   0.49179   0.24127   1.000
    Zr23    Zr   0.72239   0.06573   0.26408   1.000
    O24     O    0.71434   0.14046   0.28543   1.000
    O25     O    0.79165   0.06286   0.29192   1.000
    O26     O    0.64015   0.06369   0.28456   1.000
    O27     O    0.66716   0.04363   0.44612   1.000
    O28     O    0.71635   0.98583   0.29172   1.000
    O29     O    0.80545   0.06680   0.24192   1.000
    O30     O    0.72989   0.14594   0.23539   1.000
    O31     O    0.82569   0.05022   0.10189   1.000
    O32     O    0.72807   0.99179   0.24128   1.000
    O33     O    0.65360   0.07132   0.23408   1.000
    Zr34    Zr   0.22239   0.56572   0.26408   1.000
    O35     O    0.16715   0.54362   0.44612   1.000
    O36     O    0.21434   0.64045   0.28544   1.000
    O37     O    0.29166   0.56285   0.29194   1.000
    O38     O    0.21635   0.48582   0.29171   1.000
    O39     O    0.14015   0.56368   0.28456   1.000
    O40     O    0.22989   0.64592   0.23540   1.000
    O41     O    0.22808   0.49179   0.24128   1.000
    O42     O    0.30546   0.56678   0.24194   1.000
    O43     O    0.32571   0.55022   0.10189   1.000
    O44     O    0.15361   0.57130   0.23408   1.000
    Zr45    Zr   0.22239   0.06573   0.26408   1.000
    O46     O    0.29166   0.06286   0.29193   1.000
    O47     O    0.14016   0.06369   0.28454   1.000
    O48     O    0.16715   0.04363   0.44612   1.000
    O49     O    0.21434   0.14046   0.28543   1.000
    O50     O    0.21635   0.98583   0.29173   1.000
    O51     O    0.30546   0.06680   0.24194   1.000
    O52     O    0.15361   0.07132   0.23406   1.000
    O53     O    0.22989   0.14594   0.23539   1.000
    O54     O    0.32571   0.05022   0.10189   1.000
    O55     O    0.22808   0.99179   0.24128   1.000
loop_
    _geom_bond_atom_site_label_1
    _geom_bond_atom_site_label_2
    _geom_bond_distance
    _geom_bond_site_symmetry_2
    _ccdc_geom_bond_type
    Zr12   O13       1.43407      .   S
    N11    O13       3.10697      .   S
    Zr12   O14       1.38779      .   S
    N10    O14       3.16796      .   S
    Zr12   O15       1.41601      .   S
    N5     O15       3.09526      .   S
    Zr12   O16       2.32968      .   S
    N2     O16       4.54570      .   S
    Zr12   O17       1.39893      .   S
    N7     O17       3.15941      .   S
    Zr12   O18       1.39906      .   S
    N5     O18       3.14577      .   S
    Zr12   O19       2.47703      .   S
    N3     O19       5.20160  1_456   S
    Zr12   O20       1.39647      .   S
    N11    O20       3.17087      .   S
    Zr12   O21       1.42585      .   S
    N7     O21       3.10251      .   S
    Zr12   O22       1.43394      .   S
    N10    O22       3.09667      .   S
    Zr23   O24       1.43403      .   S
    N10    O24       3.10691      .   S
    Zr23   O25       1.39883      .   S
    N6     O25       3.15930      .   S
    Zr23   O26       1.41601      .   S
    N4     O26       3.09527      .   S
    Zr23   O27       2.32968      .   S
    N0     O27       4.54568  1_565   S
    Zr23   O28       1.38794  1_545   S
    N11    O28       3.16810      .   S
    Zr23   O29       1.42583      .   S
    N6     O29       3.10228      .   S
    Zr23   O30       1.39647      .   S
    N10    O30       3.17076      .   S
    Zr23   O31       2.47705      .   S
    N1     O31       5.20163  1_466   S
    Zr23   O32       1.43405  1_545   S
    N11    O32       3.09687      .   S
    Zr23   O33       1.39907      .   S
    N4     O33       3.14578      .   S
    Zr34   O35       2.32972      .   S
    N3     O35       4.54577      .   S
    Zr34   O36       1.43409      .   S
    N9     O36       3.10699      .   S
    Zr34   O37       1.39893      .   S
    N5     O37       3.15936      .   S
    Zr34   O38       1.38779      .   S
    N8     O38       3.16781      .   S
    Zr34   O39       1.41606      .   S
    N7     O39       3.09541  1_655   S
    Zr34   O40       1.39647      .   S
    N9     O40       3.17091      .   S
    Zr34   O41       1.43390      .   S
    N8     O41       3.09662      .   S
    Zr34   O42       1.42583      .   S
    N5     O42       3.10247      .   S
    Zr34   O43       2.47714      .   S
    N2     O43       5.20199  1_556   S
    Zr34   O44       1.39912      .   S
    N7     O44       3.14591  1_655   S
    Zr45   O46       1.39892      .   S
    N4     O46       3.15935      .   S
    Zr45   O47       1.41610      .   S
    N6     O47       3.09559  1_655   S
    Zr45   O48       2.32971      .   S
    N1     O48       4.54574  1_565   S
    Zr45   O49       1.43407      .   S
    N8     O49       3.10696      .   S
    Zr45   O50       1.38794  1_545   S
    N9     O50       3.16806      .   S
    Zr45   O51       1.42583      .   S
    N4     O51       3.10246      .   S
    Zr45   O52       1.39922      .   S
    N6     O52       3.14603  1_655   S
    Zr45   O53       1.39647      .   S
    N8     O53       3.17085      .   S
    Zr45   O54       2.47715      .   S
    N0     O54       5.20202  1_566   S
    Zr45   O55       1.43404  1_545   S
    N9     O55       3.09685      .   S
