# CIF file generated by openbabel 2.4.90, see http://openbabel.sf.net
data_I
_chemical_name_common 'VESTA_phase_1'
_cell_length_a 12.124
_cell_length_b 15.264
_cell_length_c 15.916
_cell_angle_alpha 89.962
_cell_angle_beta 89.998
_cell_angle_gamma 89.986
_space_group_name_H-M_alt 'P 1'
_space_group_name_Hall 'P 1'
loop_
    _symmetry_equiv_pos_as_xyz
    x,y,z
loop_
    _atom_site_label
    _atom_site_type_symbol
    _atom_site_fract_x
    _atom_site_fract_y
    _atom_site_fract_z
    _atom_site_occupancy
    Cu0     Cu   0.33299   0.81505   0.49993   1.000
    Cu1     Cu   0.66696   0.18496   0.50008   1.000
    Cu2     Cu   0.16694   0.31503   0.99996   1.000
    Cu3     Cu   0.83302   0.68496   0.30000   1.000
    Cu4     Cu   0.49999   0.99998   0.00000   1.000
    Cu5     Cu   1.00000   0.50000   0.99999   1.000
    H6      H    0.64498   0.62173   0.90051   1.000
    H7      H    0.71509   0.91442   0.78208   1.000
    H8      H    0.53180   0.67225   0.77650   1.000
    H9      H    0.81835   0.85530   0.90596   1.000
    H10     H    0.35509   0.37818   0.90040   1.000
    H11     H    0.28469   0.08561   0.78217   1.000
    H12     H    0.46824   0.32765   0.77644   1.000
    H13     H    0.18145   0.14472   0.90600   1.000
    H14     H    0.85510   0.12178   0.59968   1.000
    H15     H    0.78468   0.41442   0.71780   1.000
    H16     H    0.96828   0.17233   0.72360   1.000
    H17     H    0.68141   0.35529   0.59400   1.000
    H18     H    0.14492   0.87838   0.59953   1.000
    H19     H    0.21513   0.58563   0.71785   1.000
    H20     H    0.03172   0.82781   0.72350   1.000
    H21     H    0.31841   0.64479   0.59402   1.000
    H22     H    0.35502   0.37830   0.09950   1.000
    H23     H    0.28483   0.08563   0.21795   1.000
    H24     H    0.46824   0.32774   0.22348   1.000
    H25     H    0.18154   0.14477   0.09410   1.000
    H26     H    0.64490   0.62171   0.09960   1.000
    H27     H    0.71523   0.91432   0.21780   1.000
    H28     H    0.53173   0.67226   0.22361   1.000
    H29     H    0.81848   0.85519   0.09401   1.000
    H30     H    0.14486   0.87818   0.40034   1.000
    H31     H    0.21525   0.58553   0.28222   1.000
    H32     H    0.03172   0.82765   0.27641   1.000
    H33     H    0.31849   0.64465   0.40601   1.000
    H34     H    0.85507   0.12171   0.40053   1.000
    H35     H    0.78476   0.41441   0.28212   1.000
    H36     H    0.96826   0.17226   0.27655   1.000
    H37     H    0.68150   0.35527   0.40597   1.000
    C38     C    0.61551   0.79744   0.76900   1.000
    C39     C    0.55790   0.82791   0.69423   1.000
    C40     C    0.65530   0.68658   0.87265   1.000
    C41     C    0.69646   0.84976   0.80727   1.000
    C42     C    0.59442   0.71463   0.80387   1.000
    C43     C    0.75337   0.81722   0.87602   1.000
    C44     C    0.38439   0.20252   0.76905   1.000
    C45     C    0.44200   0.17206   0.69428   1.000
    C46     C    0.34469   0.31335   0.87259   1.000
    C47     C    0.30337   0.15024   0.80732   1.000
    C48     C    0.40556   0.28530   0.80383   1.000
    C49     C    0.24648   0.18278   0.87604   1.000
    C50     C    0.88441   0.29749   0.73096   1.000
    C51     C    0.94202   0.32795   0.80572   1.000
    C52     C    0.84470   0.18662   0.62747   1.000
    C53     C    0.80336   0.34978   0.69268   1.000
    C54     C    0.90558   0.21469   0.69620   1.000
    C55     C    0.74646   0.31722   0.62399   1.000
    C56     C    0.11549   0.70261   0.73094   1.000
    C57     C    0.05787   0.67211   0.80573   1.000
    C58     C    0.15527   0.81352   0.62737   1.000
    C59     C    0.19649   0.65030   0.69260   1.000
    C60     C    0.09437   0.78544   0.69613   1.000
    C61     C    0.25340   0.68287   0.62396   1.000
    C62     C    0.38447   0.20257   0.23097   1.000
    C63     C    0.44210   0.17209   0.30577   1.000
    C64     C    0.34469   0.31345   0.12736   1.000
    C65     C    0.30347   0.15028   0.19275   1.000
    C66     C    0.40558   0.28538   0.19612   1.000
    C67     C    0.24655   0.18283   0.12400   1.000
    C68     C    0.61555   0.79740   0.23090   1.000
    C69     C    0.55793   0.82789   0.30570   1.000
    C70     C    0.65528   0.68654   0.12740   1.000
    C71     C    0.69656   0.84968   0.19268   1.000
    C72     C    0.59440   0.71461   0.19620   1.000
    C73     C    0.75346   0.81713   0.12397   1.000
    C74     C    0.11556   0.70248   0.26906   1.000
    C75     C    0.05797   0.67203   0.19428   1.000
    C76     C    0.15526   0.81333   0.37256   1.000
    C77     C    0.19658   0.65018   0.30734   1.000
    C78     C    0.09439   0.78529   0.30381   1.000
    C79     C    0.25347   0.68272   0.37605   1.000
    C80     C    0.88444   0.29745   0.26907   1.000
    C81     C    0.94204   0.32792   0.19427   1.000
    C82     C    0.84470   0.18657   0.37268   1.000
    C83     C    0.80343   0.34975   0.30730   1.000
    C84     C    0.90559   0.21463   0.30391   1.000
    C85     C    0.74653   0.31720   0.37604   1.000
    N86     N    0.51259   0.90613   0.59042   1.000
    N87     N    0.45276   0.83204   0.58852   1.000
    N88     N    0.47970   0.78131   0.65315   1.000
    N89     N    0.57917   0.90540   0.65633   1.000
    N90     N    0.73412   0.73681   0.90822   1.000
    N91     N    0.48728   0.09387   0.59052   1.000
    N92     N    0.54723   0.16790   0.58864   1.000
    N93     N    0.52031   0.21861   0.65324   1.000
    N94     N    0.42063   0.09462   0.65600   1.000
    N95     N    0.26580   0.26315   0.90818   1.000
    N96     N    0.98727   0.40615   0.90947   1.000
    N97     N    0.04725   0.33210   0.91137   1.000
    N98     N    0.02034   0.28139   0.84679   1.000
    N99     N    0.92064   0.40541   0.84360   1.000
    N100    N    0.76578   0.23682   0.59187   1.000
    N101    N    0.01261   0.59386   0.90953   1.000
    N102    N    0.95270   0.66794   0.91142   1.000
    N103    N    0.97962   0.71869   0.84680   1.000
    N104    N    0.07921   0.59462   0.84363   1.000
    N105    N    0.23413   0.76330   0.59180   1.000
    N106    N    0.48741   0.09384   0.40956   1.000
    N107    N    0.54726   0.16792   0.41146   1.000
    N108    N    0.52031   0.21867   0.34680   1.000
    N109    N    0.42082   0.09459   0.34366   1.000
    N110    N    0.26582   0.26324   0.09181   1.000
    N111    N    0.51267   0.90612   0.40946   1.000
    N112    N    0.45267   0.83211   0.41134   1.000
    N113    N    0.47958   0.78138   0.34677   1.000
    N114    N    0.57934   0.90533   0.34360   1.000
    N115    N    0.73415   0.73674   0.09185   1.000
    N116    N    0.01273   0.59387   0.09051   1.000
    N117    N    0.95278   0.66793   0.08861   1.000
    N118    N    0.97968   0.71862   0.15321   1.000
    N119    N    0.07934   0.59458   0.15640   1.000
    N120    N    0.23416   0.76312   0.40816   1.000
    N121    N    0.98733   0.40613   0.09045   1.000
    N122    N    0.04719   0.33203   0.08856   1.000
    N123    N    0.02026   0.28131   0.15319   1.000
    N124    N    0.92075   0.40542   0.15636   1.000
    N125    N    0.76582   0.23679   0.40824   1.000
    Cl126   Cl   0.27553   0.96590   0.49988   1.000
    Cl127   Cl   0.72444   0.03411   0.50011   1.000
    Cl128   Cl   0.22438   0.46586   0.99990   1.000
    Cl129   Cl   0.77561   0.53412   0.00000   1.000
loop_
    _geom_bond_atom_site_label_1
    _geom_bond_atom_site_label_2
    _geom_bond_distance
    _geom_bond_site_symmetry_2
    _ccdc_geom_bond_type
    N122   N121      1.34415  1_455   S
    N122   N123      1.32783      .   S
    N122   Cu2       2.04058  1_554   S
    N117   N116      1.34414  1_655   S
    N117   N118      1.32794      .   S
    N121   N124      1.32372      .   S
    N121   Cu5       2.03637  1_554   S
    N116   N119      1.32375      .   S
    N116   Cu5       2.03839  1_454   S
    N110   C67       1.35009      .   S
    N110   C64       1.35004      .   S
    N110   Cu2       2.04871  1_554   S
    N115   C73       1.35011      .   S
    N115   C70       1.34965      .   S
    H29    C73       1.08907      .   S
    H25    C67       1.08900      .   S
    H22    C64       1.09161      .   S
    H26    C70       1.09162      .   S
    C73    C71       1.38532      .   S
    C67    C65       1.38552      .   S
    C64    C66       1.38767      .   S
    C70    C72       1.38844      .   S
    N123   C81       1.35398  1_455   S
    N118   C75       1.35391  1_655   S
    N124   C81       1.35241      .   S
    N119   C75       1.35240      .   S
    C71    H27       1.08864      .   S
    C71    C68       1.40401      .   S
    C65    H23       1.08874      .   S
    C65    C62       1.40447      .   S
    C81    C80       1.45631      .   S
    C75    C74       1.45639      .   S
    C66    H24       1.08871      .   S
    C66    C62       1.40361      .   S
    C72    H28       1.08871      .   S
    C72    C68       1.40320      .   S
    C68    C69       1.45685      .   S
    C62    C63       1.45640      .   S
    C74    C78       1.40356      .   S
    C74    C77       1.40442      .   S
    C80    C84       1.40360      .   S
    C80    C83       1.40445      .   S
    H32    C78       1.08868      .   S
    H36    C84       1.08869      .   S
    H35    C83       1.08868      .   S
    H31    C77       1.08873      .   S
    C78    C76       1.38782      .   S
    C84    C82       1.38776      .   S
    C69    N114      1.35261      .   S
    C69    N113      1.35404      .   S
    C63    N109      1.35235      .   S
    C63    N108      1.35353      .   S
    C83    C85       1.38535      .   S
    C77    C79       1.38539      .   S
    N114   N111      1.32370      .   S
    N109   N106      1.32369      .   S
    N113   N112      1.32785      .   S
    N108   N107      1.32846      .   S
    C76    H30       1.09158      .   S
    C76    N120      1.35004      .   S
    C82    H34       1.09161      .   S
    C82    N125      1.35008      .   S
    C85    H37       1.08913      .   S
    C85    N125      1.35014      .   S
    C79    H33       1.08909      .   S
    C79    N120      1.35011      .   S
    N120   Cu0       2.04930      .   S
    N125   Cu1       2.04890      .   S
    N111   N112      1.34406      .   S
    N106   N107      1.34407      .   S
    N112   Cu0       2.03981      .   S
    N107   Cu1       2.04064      .   S
    Cl126  Cu0       2.40547      .   S
    Cu0    N87       2.04077      .   S
    Cu0    N105      2.04876      .   S
    Cu1    Cl127     2.40555      .   S
    Cu1    N92       2.03995      .   S
    Cu1    N100      2.04900      .   S
    N87    N86       1.34409      .   S
    N87    N88       1.32788      .   S
    N92    N91       1.34410      .   S
    N92    N93       1.32797      .   S
    N86    N89       1.32373      .   S
    N91    N94       1.31879      .   S
    N105   C61       1.35012      .   S
    N105   C58       1.35002      .   S
    N100   C55       1.35021      .   S
    N100   C52       1.35007      .   S
    H17    C55       1.08938      .   S
    H21    C61       1.08912      .   S
    H18    C58       1.09166      .   S
    H14    C52       1.09163      .   S
    C61    C59       1.38424      .   S
    C55    C53       1.38531      .   S
    C58    C60       1.38777      .   S
    C52    C54       1.38776      .   S
    N88    C39       1.35392      .   S
    N93    C45       1.35378      .   S
    N94    C45       1.35523      .   S
    N89    C39       1.35235      .   S
    C59    H19       1.08923      .   S
    C59    C56       1.40510      .   S
    C53    H15       1.08873      .   S
    C53    C50       1.40449      .   S
    C39    C38       1.45585      .   S
    C45    C44       1.45629      .   S
    C60    H20       1.08865      .   S
    C60    C56       1.40358      .   S
    C54    H16       1.08872      .   S
    C54    C50       1.40362      .   S
    C56    C57       1.45631      .   S
    C50    C51       1.45632      .   S
    C38    C42       1.40376      .   S
    C38    C41       1.40466      .   S
    C44    C48       1.40359      .   S
    C44    C47       1.40445      .   S
    H12    C48       1.08867      .   S
    H8     C42       1.08867      .   S
    H7     C41       1.08871      .   S
    H11    C47       1.08873      .   S
    C48    C46       1.38779      .   S
    C42    C40       1.38773      .   S
    C51    N99       1.35248      .   S
    C51    N98       1.35396  1_655   S
    C57    N104      1.35238      .   S
    C57    N103      1.35393  1_455   S
    C41    C43       1.38532      .   S
    C47    C49       1.38530      .   S
    N99    N96       1.32365      .   S
    N104   N101      1.32369      .   S
    N98    N97       1.32790      .   S
    N103   N102      1.32791      .   S
    C46    H10       1.09161      .   S
    C46    N95       1.35003      .   S
    C40    H6        1.09166      .   S
    C40    N90       1.35005      .   S
    C43    H9        1.08914      .   S
    C43    N90       1.35013      .   S
    C49    H13       1.08913      .   S
    C49    N95       1.35010      .   S
    N95    Cu2       2.04900      .   S
    N96    N97       1.34412  1_655   S
    N96    Cu5       2.03826      .   S
    N101   N102      1.34413  1_455   S
    N101   Cu5       2.03625  1_455   S
    N97    Cu2       2.03999      .   S
    Cl128  Cu2       2.40550      .   S
    Cu5    Cl129     2.76972  1_556   S
