# CIF file generated by openbabel 2.4.90, see http://openbabel.sf.net
data_I
_chemical_name_common ''
_cell_length_a 21.85
_cell_length_b 21.892
_cell_length_c 13.972
_cell_angle_alpha 95.2
_cell_angle_beta 99.23
_cell_angle_gamma 99.89
_space_group_name_H-M_alt 'P 1'
_space_group_name_Hall 'P 1'
loop_
    _symmetry_equiv_pos_as_xyz
    x,y,z
loop_
    _atom_site_label
    _atom_site_type_symbol
    _atom_site_fract_x
    _atom_site_fract_y
    _atom_site_fract_z
    _atom_site_occupancy
    H0      H    0.15334   0.04099   0.64056   1.000
    H1      H    0.14420   0.54459   0.64054   1.000
    H2      H    0.65861   0.04099   0.64057   1.000
    H3      H    0.64940   0.54458   0.64057   1.000
    H4      H    0.14471   0.15392   0.63560   1.000
    H5      H    0.13558   0.65753   0.63559   1.000
    H6      H    0.65001   0.15395   0.63567   1.000
    H7      H    0.64080   0.65754   0.63566   1.000
    H8      H    0.22275   0.19242   0.94188   1.000
    H9      H    0.21356   0.69601   0.94188   1.000
    H10     H    0.72872   0.19252   0.94170   1.000
    H11     H    0.71958   0.69612   0.94167   1.000
    H12     H    0.22984   0.08032   0.94723   1.000
    H13     H    0.22065   0.58392   0.94724   1.000
    H14     H    0.73571   0.08041   0.94705   1.000
    H15     H    0.72656   0.58401   0.94702   1.000
    H16     H    0.46437   0.33300   0.62519   1.000
    H17     H    0.45512   0.83656   0.62500   1.000
    H18     H    0.96984   0.33288   0.62459   1.000
    H19     H    0.96058   0.83640   0.62460   1.000
    H20     H    0.35197   0.34005   0.63336   1.000
    H21     H    0.34273   0.84361   0.63337   1.000
    H22     H    0.85746   0.33986   0.63282   1.000
    H23     H    0.84820   0.84339   0.63283   1.000
    H24     H    0.40468   0.40171   0.94082   1.000
    H25     H    0.39544   0.90534   0.94081   1.000
    H26     H    0.91029   0.40207   0.94011   1.000
    H27     H    0.90106   0.90566   0.94010   1.000
    H28     H    0.51705   0.39317   0.93282   1.000
    H29     H    0.50781   0.89679   0.93280   1.000
    H30     H    0.00000   0.39357   0.93207   1.000
    H31     H    0.00000   0.89716   0.93206   1.000
    H32     H    0.17237   0.45889   0.04743   1.000
    H33     H    0.16305   0.96248   0.04738   1.000
    H34     H    0.67798   0.45901   0.04731   1.000
    H35     H    0.66877   0.96259   0.04729   1.000
    H36     H    0.14256   0.26337   0.19469   1.000
    H37     H    0.13356   0.76699   0.19477   1.000
    H38     H    0.64906   0.26357   0.19494   1.000
    H39     H    0.63990   0.76718   0.19497   1.000
    H40     H    0.14600   0.26585   0.01657   1.000
    H41     H    0.13697   0.76946   0.01664   1.000
    H42     H    0.65268   0.26603   0.01687   1.000
    H43     H    0.64348   0.76961   0.01689   1.000
    H44     H    0.25823   0.38773   0.36875   1.000
    H45     H    0.24905   0.89151   0.36885   1.000
    H46     H    0.76394   0.38829   0.36925   1.000
    H47     H    0.75476   0.89192   0.36930   1.000
    H48     H    0.25918   0.38245   0.54810   1.000
    H49     H    0.24996   0.88621   0.54819   1.000
    H50     H    0.76458   0.38288   0.54852   1.000
    H51     H    0.75537   0.88650   0.54856   1.000
    H52     H    0.06445   0.33356   0.50278   1.000
    H53     H    0.05525   0.83703   0.50271   1.000
    H54     H    0.56988   0.33326   0.50219   1.000
    H55     H    0.56067   0.83687   0.50217   1.000
    H56     H    0.21979   0.49388   0.29380   1.000
    H57     H    0.21059   0.99766   0.29347   1.000
    H58     H    0.72524   0.49442   0.29300   1.000
    H59     H    0.71608   0.99804   0.29325   1.000
    H60     H    0.18241   0.01685   0.19578   1.000
    H61     H    0.17355   0.52046   0.19586   1.000
    H62     H    0.68763   0.01694   0.19555   1.000
    H63     H    0.67835   0.52051   0.19557   1.000
    H64     H    0.13715   0.48499   0.28757   1.000
    H65     H    0.12798   0.98846   0.28784   1.000
    H66     H    0.64261   0.48482   0.28771   1.000
    H67     H    0.63346   0.98843   0.28774   1.000
    H68     H    0.03431   0.29809   0.24142   1.000
    H69     H    0.02521   0.80154   0.24139   1.000
    H70     H    0.54034   0.29806   0.24077   1.000
    H71     H    0.53115   0.80164   0.24079   1.000
    H72     H    0.50478   0.31390   0.34342   1.000
    H73     H    0.49559   0.81756   0.34341   1.000
    H74     H    0.00000   0.31440   0.34420   1.000
    H75     H    0.00000   0.81785   0.34412   1.000
    H76     H    0.02428   0.37501   0.27462   1.000
    H77     H    0.01509   0.87844   0.27446   1.000
    H78     H    0.52990   0.37480   0.27425   1.000
    H79     H    0.52074   0.87841   0.27417   1.000
    H80     H    0.38277   0.48082   0.37442   1.000
    H81     H    0.37357   0.98441   0.37442   1.000
    H82     H    0.88799   0.48082   0.37444   1.000
    H83     H    0.87886   0.98443   0.37443   1.000
    C84     C    0.70360   0.66277   0.87599   1.000
    C85     C    0.21131   0.09654   0.87901   1.000
    C86     C    0.20213   0.60013   0.87901   1.000
    C87     C    0.71706   0.09661   0.87888   1.000
    H88     H    0.39138   0.36787   0.37933   1.000
    H89     H    0.38217   0.87146   0.37932   1.000
    H90     H    0.89661   0.36788   0.37900   1.000
    H91     H    0.88748   0.87149   0.37938   1.000
    H92     H    0.31261   0.32928   0.07331   1.000
    H93     H    0.30346   0.83289   0.07329   1.000
    H94     H    0.81862   0.32940   0.07311   1.000
    H95     H    0.80943   0.83299   0.07312   1.000
    H96     H    0.30563   0.44140   0.06796   1.000
    H97     H    0.29647   0.94500   0.06794   1.000
    H98     H    0.81153   0.44149   0.06775   1.000
    H99     H    0.80234   0.94508   0.06776   1.000
    H100    H    0.07160   0.18901   0.39039   1.000
    H101    H    0.06234   0.69253   0.39000   1.000
    H102    H    0.57706   0.18885   0.38979   1.000
    H103    H    0.56781   0.69240   0.38980   1.000
    H104    H    0.18398   0.18202   0.38216   1.000
    H105    H    0.17472   0.68555   0.38217   1.000
    H106    H    0.68945   0.18180   0.38162   1.000
    H107    H    0.68020   0.68535   0.38160   1.000
    H108    H    0.13113   0.11976   0.07488   1.000
    H109    H    0.12189   0.62335   0.07488   1.000
    H110    H    0.63674   0.12008   0.07418   1.000
    H111    H    0.62751   0.62371   0.07416   1.000
    H112    H    0.01883   0.12826   0.08293   1.000
    H113    H    0.00959   0.63184   0.08292   1.000
    H114    H    0.52437   0.12862   0.08218   1.000
    H115    H    0.51514   0.63225   0.08217   1.000
    C116    C    0.15103   0.30849   0.06607   1.000
    C117    C    0.14194   0.81210   0.06612   1.000
    C118    C    0.65746   0.30867   0.06627   1.000
    C119    C    0.64827   0.81226   0.06629   1.000
    C120    C    0.15639   0.36267   0.33126   1.000
    H121    H    0.36342   0.06281   0.96769   1.000
    H122    H    0.35421   0.56641   0.96760   1.000
    H123    H    0.86913   0.06293   0.96760   1.000
    H124    H    0.85981   0.56652   0.96755   1.000
    H125    H    0.39229   0.25824   0.82003   1.000
    H126    H    0.38312   0.76184   0.82006   1.000
    H127    H    0.89863   0.25843   0.82023   1.000
    H128    H    0.88963   0.76205   0.82031   1.000
    H129    H    0.38870   0.25580   0.99811   1.000
    H130    H    0.37951   0.75939   0.99813   1.000
    H131    H    0.89522   0.25595   0.99836   1.000
    H132    H    0.88620   0.75956   0.99843   1.000
    H133    H    0.27743   0.13351   0.64570   1.000
    H134    H    0.26825   0.63713   0.64570   1.000
    H135    H    0.78314   0.13392   0.64614   1.000
    H136    H    0.77396   0.63771   0.64620   1.000
    H137    H    0.27681   0.13892   0.46644   1.000
    H138    H    0.26761   0.64254   0.46648   1.000
    H139    H    0.78223   0.13922   0.46681   1.000
    H140    H    0.77301   0.64299   0.46600   1.000
    H141    H    0.47151   0.18854   0.51282   1.000
    H142    H    0.46230   0.69216   0.51280   1.000
    H143    H    0.97693   0.18837   0.51228   1.000
    H144    H    0.96773   0.69184   0.51220   1.000
    H145    H    0.31611   0.02738   0.72170   1.000
    H146    H    0.30695   0.53100   0.72169   1.000
    H147    H    0.82159   0.02776   0.72151   1.000
    H148    H    0.81240   0.53154   0.72117   1.000
    H149    H    0.35384   0.50490   0.81941   1.000
    H150    H    0.34456   0.00000   0.81943   1.000
    H151    H    0.85862   0.50496   0.81910   1.000
    H152    H    0.84977   0.00000   0.81919   1.000
    H153    H    0.39873   0.03699   0.72724   1.000
    H154    H    0.38957   0.54060   0.72727   1.000
    H155    H    0.90420   0.03696   0.72714   1.000
    H156    H    0.89504   0.54043   0.72742   1.000
    H157    H    0.50103   0.22378   0.77420   1.000
    H158    H    0.49184   0.72736   0.77420   1.000
    H159    H    0.00000   0.22387   0.77360   1.000
    H160    H    0.99788   0.72732   0.77356   1.000
    H161    H    0.03089   0.20755   0.67087   1.000
    H162    H    0.02173   0.71100   0.67076   1.000
    H163    H    0.53660   0.20786   0.67158   1.000
    H164    H    0.52740   0.71152   0.67157   1.000
    H165    H    0.51145   0.14701   0.74082   1.000
    H166    H    0.50229   0.65062   0.74073   1.000
    H167    H    0.00000   0.14696   0.74053   1.000
    H168    H    0.00000   0.65039   0.74037   1.000
    C169    C    0.19221   0.05379   0.79392   1.000
    C170    C    0.18305   0.55739   0.79391   1.000
    C171    C    0.69770   0.05383   0.79385   1.000
    C172    C    0.68851   0.55743   0.79383   1.000
    C173    C    0.16820   0.07471   0.70603   1.000
    C174    C    0.15905   0.57831   0.70602   1.000
    C175    C    0.67359   0.07474   0.70601   1.000
    C176    C    0.66440   0.57833   0.70600   1.000
    C177    C    0.16335   0.13716   0.70337   1.000
    C178    C    0.15420   0.64076   0.70336   1.000
    C179    C    0.66877   0.13719   0.70337   1.000
    C180    C    0.65956   0.64079   0.70336   1.000
    C181    C    0.18278   0.18000   0.78838   1.000
    C182    C    0.17361   0.68360   0.78838   1.000
    C183    C    0.68834   0.18005   0.78835   1.000
    C184    C    0.67915   0.68364   0.78834   1.000
    C185    C    0.20697   0.15908   0.87614   1.000
    C186    C    0.19779   0.66268   0.87614   1.000
    C187    C    0.71277   0.15916   0.87601   1.000
    C188    C    0.49032   0.69289   0.71128   1.000
    C189    C    0.00000   0.18921   0.71082   1.000
    C190    C    0.99610   0.69267   0.71070   1.000
    N191    N    0.15924   0.36239   0.02580   1.000
    N192    N    0.15006   0.86599   0.02590   1.000
    N193    N    0.66543   0.36254   0.02598   1.000
    N194    N    0.65622   0.86613   0.02599   1.000
    N195    N    0.16195   0.35768   0.53142   1.000
    C196    C    0.70789   0.60021   0.87885   1.000
    C197    C    0.49740   0.36286   0.77855   1.000
    C198    C    0.48816   0.86645   0.77855   1.000
    C199    C    0.00000   0.36301   0.77780   1.000
    C200    C    0.99375   0.86657   0.77787   1.000
    C201    C    0.45085   0.34801   0.69398   1.000
    C202    C    0.44161   0.85158   0.69398   1.000
    C203    C    0.95639   0.34803   0.69337   1.000
    C204    C    0.94714   0.85156   0.69338   1.000
    C205    C    0.38855   0.35239   0.69839   1.000
    C206    C    0.37931   0.85596   0.69839   1.000
    C207    C    0.89405   0.35235   0.69782   1.000
    C208    C    0.88480   0.85590   0.69783   1.000
    C209    C    0.37167   0.37212   0.78733   1.000
    C210    C    0.36243   0.87571   0.78732   1.000
    C211    C    0.87712   0.37218   0.78668   1.000
    C212    C    0.86788   0.87575   0.78668   1.000
    C213    C    0.41821   0.38681   0.87198   1.000
    C214    C    0.40898   0.89042   0.87197   1.000
    C215    C    0.92375   0.38707   0.87125   1.000
    C216    C    0.91451   0.89065   0.87125   1.000
    C217    C    0.48047   0.38200   0.86767   1.000
    C218    C    0.47123   0.88561   0.86766   1.000
    C219    C    0.98602   0.38231   0.86692   1.000
    C220    C    0.97678   0.88588   0.86690   1.000
    C221    C    0.16597   0.41675   0.08364   1.000
    C222    C    0.15672   0.92035   0.08360   1.000
    C223    C    0.67179   0.41689   0.08361   1.000
    C224    C    0.66259   0.92048   0.08360   1.000
    C225    C    0.16522   0.42065   0.18385   1.000
    C226    C    0.15598   0.92425   0.18384   1.000
    C227    C    0.67092   0.42080   0.18378   1.000
    C228    C    0.66174   0.92440   0.18378   1.000
    C229    C    0.15624   0.36402   0.22493   1.000
    C230    C    0.14709   0.86764   0.22490   1.000
    C231    C    0.66219   0.36420   0.22497   1.000
    C232    C    0.65302   0.86781   0.22499   1.000
    C233    C    0.14905   0.30772   0.16468   1.000
    C234    C    0.13998   0.81133   0.16473   1.000
    C235    C    0.65537   0.30791   0.16484   1.000
    C236    C    0.64620   0.81151   0.16487   1.000
    C237    C    0.14722   0.86628   0.33128   1.000
    C238    C    0.66215   0.36284   0.33126   1.000
    C239    C    0.65297   0.86645   0.33128   1.000
    C240    C    0.21419   0.37588   0.39597   1.000
    C241    C    0.20500   0.87958   0.39603   1.000
    C242    C    0.71984   0.37625   0.39624   1.000
    C243    C    0.71066   0.87987   0.39627   1.000
    C244    C    0.21536   0.37292   0.49499   1.000
    C245    C    0.20615   0.87662   0.49504   1.000
    C246    C    0.72084   0.37323   0.49521   1.000
    C247    C    0.71165   0.87685   0.49524   1.000
    C248    C    0.10612   0.34514   0.46932   1.000
    C249    C    0.09692   0.84868   0.46929   1.000
    C250    C    0.61163   0.34504   0.46900   1.000
    C251    C    0.60243   0.84865   0.46899   1.000
    C252    C    0.10015   0.34676   0.36843   1.000
    C253    C    0.09097   0.85030   0.36840   1.000
    C254    C    0.60583   0.34672   0.36814   1.000
    C255    C    0.59664   0.85033   0.36814   1.000
    C256    C    0.17421   0.48325   0.24323   1.000
    C257    C    0.16490   0.98685   0.24319   1.000
    C258    C    0.67954   0.48339   0.24304   1.000
    C259    C    0.67037   0.98699   0.24303   1.000
    C260    C    0.03609   0.33274   0.30425   1.000
    C261    C    0.02693   0.83620   0.30417   1.000
    C262    C    0.54187   0.33253   0.30370   1.000
    C263    C    0.53268   0.83614   0.30369   1.000
    C264    C    0.34367   0.46798   0.22110   1.000
    C265    C    0.33448   0.97158   0.22114   1.000
    C266    C    0.84914   0.46802   0.22108   1.000
    C267    C    0.83998   0.97162   0.22107   1.000
    C268    C    0.36778   0.44708   0.30899   1.000
    C269    C    0.35859   0.95067   0.30898   1.000
    C270    C    0.87314   0.44710   0.30897   1.000
    C271    C    0.86400   0.95070   0.30896   1.000
    C272    C    0.37261   0.38462   0.31163   1.000
    C273    C    0.36341   0.88821   0.31162   1.000
    C274    C    0.87799   0.38465   0.31160   1.000
    C275    C    0.86885   0.88825   0.31162   1.000
    C276    C    0.35303   0.34176   0.22665   1.000
    C277    C    0.34384   0.84536   0.22664   1.000
    C278    C    0.85857   0.34181   0.22661   1.000
    C279    C    0.84941   0.84541   0.22661   1.000
    C280    C    0.32858   0.36264   0.13900   1.000
    C281    C    0.31941   0.86625   0.13898   1.000
    C282    C    0.83439   0.36273   0.13885   1.000
    C283    C    0.82522   0.86633   0.13885   1.000
    C284    C    0.32429   0.42520   0.13613   1.000
    C285    C    0.31512   0.92880   0.13612   1.000
    C286    C    0.83005   0.42528   0.13598   1.000
    C287    C    0.82088   0.92887   0.13598   1.000
    C288    C    0.03843   0.15884   0.23712   1.000
    C289    C    0.02919   0.66239   0.23712   1.000
    C290    C    0.54402   0.15896   0.23644   1.000
    C291    C    0.53478   0.66255   0.23640   1.000
    C292    C    0.08504   0.17385   0.32161   1.000
    C293    C    0.07579   0.67738   0.32160   1.000
    C294    C    0.59057   0.17383   0.32101   1.000
    C295    C    0.58133   0.67740   0.32101   1.000
    C296    C    0.14738   0.16951   0.31716   1.000
    C297    C    0.13813   0.67306   0.31717   1.000
    C298    C    0.65287   0.16945   0.31660   1.000
    C299    C    0.64363   0.67303   0.31659   1.000
    C300    C    0.16430   0.14966   0.22830   1.000
    C301    C    0.15506   0.65323   0.22830   1.000
    C302    C    0.66975   0.14970   0.22767   1.000
    C303    C    0.66051   0.65330   0.22766   1.000
    C304    C    0.11767   0.13476   0.14374   1.000
    C305    C    0.10843   0.63834   0.14370   1.000
    C306    C    0.62321   0.13499   0.14302   1.000
    C307    C    0.61397   0.63861   0.14300   1.000
    C308    C    0.05540   0.13953   0.14807   1.000
    C309    C    0.04616   0.64310   0.14807   1.000
    C310    C    0.56095   0.13980   0.14733   1.000
    C311    C    0.55171   0.64341   0.14730   1.000
    C312    C    0.36959   0.10493   0.93138   1.000
    C313    C    0.36039   0.60853   0.93138   1.000
    C314    C    0.87547   0.10507   0.93136   1.000
    C315    C    0.86622   0.60867   0.93130   1.000
    C316    C    0.37045   0.10102   0.83120   1.000
    C317    C    0.36127   0.60462   0.83120   1.000
    C318    C    0.87620   0.10116   0.83115   1.000
    C319    C    0.86697   0.60477   0.83114   1.000
    C320    C    0.37917   0.15761   0.79000   1.000
    C321    C    0.37000   0.66122   0.79002   1.000
    C322    C    0.88509   0.15778   0.79004   1.000
    C323    C    0.87594   0.66139   0.79006   1.000
    C324    C    0.38599   0.21390   0.85013   1.000
    C325    C    0.37682   0.71751   0.85015   1.000
    C326    C    0.89221   0.21408   0.85027   1.000
    C327    C    0.88314   0.71769   0.85032   1.000
    C328    C    0.38392   0.21315   0.94871   1.000
    C329    C    0.37473   0.71675   0.94870   1.000
    C330    C    0.89024   0.21331   0.94888   1.000
    C331    C    0.88116   0.71692   0.94890   1.000
    C332    C    0.37922   0.15896   0.68371   1.000
    C333    C    0.37004   0.66258   0.68373   1.000
    C334    C    0.88496   0.15913   0.68371   1.000
    C335    C    0.87580   0.66275   0.68373   1.000
    C336    C    0.32153   0.14555   0.61872   1.000
    C337    C    0.31234   0.64917   0.61875   1.000
    C338    C    0.82718   0.14584   0.61896   1.000
    C339    C    0.81800   0.64955   0.61900   1.000
    C340    C    0.32054   0.14857   0.51975   1.000
    C341    C    0.31134   0.65219   0.51978   1.000
    C342    C    0.82603   0.14880   0.51995   1.000
    C343    C    0.81682   0.65251   0.52001   1.000
    C344    C    0.42976   0.17676   0.54600   1.000
    C345    C    0.42056   0.68038   0.54599   1.000
    C346    C    0.93526   0.17673   0.54570   1.000
    C347    C    0.92606   0.68027   0.54566   1.000
    C348    C    0.43554   0.17509   0.64685   1.000
    C349    C    0.42635   0.67870   0.64685   1.000
    C350    C    0.94121   0.17511   0.64658   1.000
    C351    C    0.93204   0.67865   0.64655   1.000
    C352    C    0.36182   0.03842   0.77190   1.000
    C353    C    0.35265   0.54203   0.77195   1.000
    C354    C    0.86728   0.03857   0.77179   1.000
    C355    C    0.85797   0.54217   0.77175   1.000
    C356    C    0.49950   0.18928   0.71130   1.000
    N357    N    0.15274   0.86129   0.53143   1.000
    N358    N    0.66736   0.35773   0.53135   1.000
    N359    N    0.65815   0.86134   0.53136   1.000
    N360    N    0.37596   0.15928   0.98900   1.000
    N361    N    0.36676   0.66287   0.98901   1.000
    N362    N    0.88213   0.15942   0.98909   1.000
    N363    N    0.87295   0.66302   0.98910   1.000
    N364    N    0.37403   0.16407   0.48360   1.000
    N365    N    0.36482   0.66768   0.48364   1.000
    N366    N    0.87944   0.16413   0.48356   1.000
    N367    N    0.87023   0.66774   0.48357   1.000
loop_
    _geom_bond_atom_site_label_1
    _geom_bond_atom_site_label_2
    _geom_bond_distance
    _geom_bond_site_symmetry_2
    _ccdc_geom_bond_type
    H40    C116      1.08869      .   S
    H41    C117      1.08871      .   S
    H42    C118      1.08869      .   S
    H43    C119      1.08874      .   S
    N191   C116      1.34949      .   S
    N191   C221      1.34837      .   S
    N192   C117      1.34887      .   S
    N192   C222      1.34757      .   S
    N193   C118      1.34891      .   S
    N193   C223      1.34787      .   S
    N194   C119      1.34887      .   S
    N194   C224      1.34778      .   S
    H35    C224      1.09074      .   S
    H34    C223      1.09073      .   S
    H33    C222      1.09056      .   S
    H32    C221      1.09071      .   S
    C116   C233      1.38690      .   S
    C117   C234      1.38682      .   S
    C118   C235      1.38677      .   S
    C119   C236      1.38682      .   S
    H98    C286      1.08879      .   S
    H99    C287      1.08876      .   S
    H97    C285      1.08890      .   S
    H96    C284      1.08881      .   S
    H94    C282      1.08883      .   S
    H95    C283      1.08876      .   S
    H93    C281      1.08886      .   S
    H92    C280      1.08892      .   S
    H111   C307      1.08924      .   S
    H110   C306      1.08930      .   S
    H108   C304      1.08934      .   S
    H109   C305      1.08882      .   S
    H115   C311      1.08898      .   S
    H114   C310      1.08922      .   S
    H113   C309      1.08917      .   S
    H112   C308      1.08912      .   S
    C224   C228      1.39790      .   S
    C222   C226      1.39825      .   S
    C223   C227      1.39783      .   S
    C221   C225      1.39789      .   S
    C286   C282      1.39240      .   S
    C286   C266      1.40296      .   S
    C287   C283      1.39239      .   S
    C287   C267      1.40296      .   S
    C285   C281      1.39233      .   S
    C285   C265      1.40289      .   S
    C284   C280      1.39237      .   S
    C284   C264      1.40245      .   S
    C283   C279      1.40345      .   S
    C282   C278      1.40346      .   S
    C281   C277      1.40345      .   S
    C280   C276      1.40343      .   S
    C307   C311      1.39260      .   S
    C307   C303      1.40341      .   S
    C306   C310      1.39264      .   S
    C306   C302      1.40336      .   S
    C305   C309      1.39276      .   S
    C305   C301      1.40401      .   S
    C304   C308      1.39267      .   S
    C304   C300      1.40365      .   S
    C311   C291      1.40315      .   S
    C310   C290      1.40337      .   S
    C309   C289      1.40378      .   S
    C308   C288      1.40384      .   S
    C233   H36       1.08831      .   S
    C233   C229      1.39840      .   S
    C234   H37       1.08832      .   S
    C234   C230      1.39807      .   S
    C235   H38       1.08840      .   S
    C235   C231      1.39846      .   S
    C236   H39       1.08831      .   S
    C236   C232      1.39848      .   S
    C228   C232      1.40927      .   S
    C228   C259      1.50144      .   S
    C227   C231      1.40923      .   S
    C227   C258      1.50145      .   S
    C226   C230      1.40886      .   S
    C226   C257      1.50140      .   S
    C225   C229      1.40923      .   S
    C225   C256      1.50142      .   S
    H62    C259      1.04219  1_545   S
    H63    C258      1.09570      .   S
    H60    C257      1.04413  1_545   S
    H61    C256      1.09569      .   S
    C267   C271      1.40383      .   S
    C266   C270      1.40378      .   S
    C264   C268      1.40434      .   S
    C265   C269      1.40371      .   S
    C230   C237      1.48888      .   S
    C229   C120      1.48815      .   S
    C231   C238      1.48821      .   S
    C232   C239      1.48822      .   S
    C278   C274      1.40337      .   S
    C279   C275      1.40369      .   S
    C277   C273      1.40364      .   S
    C276   C272      1.40369      .   S
    C303   C299      1.40397      .   S
    C302   C298      1.40405      .   S
    C301   C297      1.40419      .   S
    C300   C296      1.40415      .   S
    C291   C295      1.40311      .   S
    C290   C294      1.40279      .   S
    C288   C292      1.40275      .   S
    C289   C293      1.40259      .   S
    H70    C262      1.09786      .   S
    H71    C263      1.09800      .   S
    H69    C261      1.09799      .   S
    H68    C260      1.09799      .   S
    C259   H67       1.09918      .   S
    C259   H59       1.10002      .   S
    C258   H66       1.09916      .   S
    C258   H58       1.09805      .   S
    C257   H65       1.09921      .   S
    C257   H57       1.10001      .   S
    C256   H64       1.09924      .   S
    C256   H56       1.09996      .   S
    H79    C263      1.10088      .   S
    H78    C262      1.10086      .   S
    H77    C261      1.10086      .   S
    H76    C260      1.10085      .   S
    C263   H73       1.09654      .   S
    C263   C255      1.50231      .   S
    C262   H72       1.09663      .   S
    C262   C254      1.50235      .   S
    C261   H75       0.94027      .   S
    C261   C253      1.50238      .   S
    C260   H74       1.08062      .   S
    C260   C252      1.50239      .   S
    C271   C275      1.39264      .   S
    C271   H83       1.08958      .   S
    C270   C274      1.39259      .   S
    C270   H82       1.08954      .   S
    C269   C273      1.39262      .   S
    C269   H81       1.08964      .   S
    C268   C272      1.39262      .   S
    C268   H80       1.08958      .   S
    C274   H90       1.08539      .   S
    C275   H91       1.08969      .   S
    C273   H89       1.08967      .   S
    C272   H88       1.08971      .   S
    C299   C295      1.39164      .   S
    C299   H107      1.08869      .   S
    C298   C294      1.39161      .   S
    C298   H106      1.08886      .   S
    C296   C292      1.39239      .   S
    C296   H104      1.08899      .   S
    C297   C293      1.39230      .   S
    C297   H105      1.08893      .   S
    C295   H103      1.08904      .   S
    C294   H102      1.08896      .   S
    C293   H101      1.08434      .   S
    C292   H100      1.08910      .   S
    C238   C254      1.41122      .   S
    C238   C242      1.39894      .   S
    C120   C252      1.41122      .   S
    C120   C240      1.39891      .   S
    C239   C255      1.41121      .   S
    C239   C243      1.39892      .   S
    C237   C253      1.41123      .   S
    C237   C241      1.39887      .   S
    C254   C250      1.39893      .   S
    C255   C251      1.39881      .   S
    C253   C249      1.39896      .   S
    C252   C248      1.39892      .   S
    H44    C240      1.08971      .   S
    H45    C241      1.08969      .   S
    H46    C242      1.08966      .   S
    H47    C243      1.08961      .   S
    C240   C244      1.38722      .   S
    C241   C245      1.38717      .   S
    C242   C246      1.38722      .   S
    C243   C247      1.38726      .   S
    H140   C343      1.09576      .   S
    H137   C340      1.08908      .   S
    H138   C341      1.08910      .   S
    H139   C342      1.08912      .   S
    C251   H55       1.09100      .   S
    C251   N359      1.34859      .   S
    C250   H54       1.09097      .   S
    C250   N358      1.34857      .   S
    C249   H53       1.09103      .   S
    C249   N357      1.34863      .   S
    C248   H52       1.09104      .   S
    C248   N195      1.34862      .   S
    N366   C342      1.34898      .   S
    N366   C346      1.34863      .   S
    N367   C343      1.34897      .   S
    N367   C347      1.34858      .   S
    N364   C340      1.34924      .   S
    N364   C344      1.34881      .   S
    N365   C341      1.34903      .   S
    N365   C345      1.34857      .   S
    C244   N195      1.34895      .   S
    C244   H48       1.08911      .   S
    C245   N357      1.34899      .   S
    C245   H49       1.08919      .   S
    C246   N358      1.34904      .   S
    C246   H50       1.08918      .   S
    C247   N359      1.34904      .   S
    C247   H51       1.08915      .   S
    H144   C347      1.09102      .   S
    H143   C346      1.09101      .   S
    H142   C345      1.09097      .   S
    H141   C344      1.09100      .   S
    C340   C336      1.38725      .   S
    C341   C337      1.38721      .   S
    C342   C338      1.38716      .   S
    C343   C339      1.38679      .   S
    C347   C351      1.39891      .   S
    C346   C350      1.39882      .   S
    C345   C349      1.39891      .   S
    C344   C348      1.39880      .   S
    C336   H133      1.08968      .   S
    C336   C332      1.39892      .   S
    C337   H134      1.08936      .   S
    C337   C333      1.39895      .   S
    C338   H135      1.08967      .   S
    C338   C334      1.39891      .   S
    C339   H136      1.08955      .   S
    C339   C335      1.39908      .   S
    H18    C203      1.08911      .   S
    H19    C204      1.08911      .   S
    H17    C202      1.09148      .   S
    H16    C201      1.08905      .   S
    H22    C207      1.08893      .   S
    H23    C208      1.08901      .   S
    H20    C205      1.08890      .   S
    H21    C206      1.08886      .   S
    H5     C178      1.08971      .   S
    H4     C177      1.08978      .   S
    H7     C180      1.08971      .   S
    H6     C179      1.08968      .   S
    H1     C174      1.08963      .   S
    H0     C173      1.08957      .   S
    H3     C176      1.08958      .   S
    H2     C175      1.08964      .   S
    C351   C335      1.41126      .   S
    C351   C190      1.50223      .   S
    C350   C334      1.41127      .   S
    C350   C189      1.41232  1_655   S
    C349   C333      1.41121      .   S
    C349   C188      1.50231      .   S
    C348   C332      1.41119      .   S
    C348   C356      1.50232      .   S
    H162   C190      0.92187  1_455   S
    H161   C189      0.99841      .   S
    H164   C188      1.09654      .   S
    H163   C356      1.09654      .   S
    C332   C320      1.48821      .   S
    C334   C322      1.48819      .   S
    C333   C321      1.48821      .   S
    C335   C323      1.48815      .   S
    C203   C207      1.39235      .   S
    C203   C199      1.36717  1_655   S
    C204   C208      1.39239      .   S
    C204   C200      1.40275      .   S
    C201   C205      1.39160      .   S
    C201   C197      1.40273      .   S
    C202   C206      1.39164      .   S
    C202   C198      1.40279      .   S
    C207   C211      1.40407      .   S
    C208   C212      1.40404      .   S
    C206   C210      1.40404      .   S
    C205   C209      1.40410      .   S
    C180   C176      1.39262      .   S
    C180   C184      1.40369      .   S
    C178   C174      1.39265      .   S
    C178   C182      1.40365      .   S
    C179   C175      1.39262      .   S
    C179   C183      1.40366      .   S
    C177   C173      1.39265      .   S
    C177   C181      1.40366      .   S
    C176   C172      1.40364      .   S
    C175   C171      1.40372      .   S
    C174   C170      1.40377      .   S
    C173   C169      1.40381      .   S
    C190   H168      1.05880  1_655   S
    C190   H160      1.09834      .   S
    C189   H167      1.04748      .   S
    C189   H159      1.10664      .   S
    C188   H166      1.10085      .   S
    C188   H158      1.09774      .   S
    C356   H165      1.10088      .   S
    C356   H157      1.09799      .   S
    H148   C355      1.09998      .   S
    H147   C354      1.10002      .   S
    H146   C353      1.10004      .   S
    H145   C352      1.09988      .   S
    H155   C354      1.09919      .   S
    H153   C352      1.09868      .   S
    H154   C353      1.09923      .   S
    H156   C355      1.09922      .   S
    C355   H151      1.09554      .   S
    C355   C319      1.50143      .   S
    C354   H152      1.17023      .   S
    C354   C318      1.50142      .   S
    C352   H150      1.16765      .   S
    C352   C316      1.50172      .   S
    C353   H149      1.09563      .   S
    C353   C317      1.50136      .   S
    C199   C219      1.37596  1_455   S
    C200   C220      1.40360      .   S
    C198   C218      1.40337      .   S
    C197   C217      1.40342      .   S
    C212   C216      1.40377      .   S
    C211   C215      1.40372      .   S
    C210   C214      1.40337      .   S
    C209   C213      1.40332      .   S
    C184   C84       1.40344      .   S
    C183   C187      1.40346      .   S
    C182   C186      1.40345      .   S
    C181   C185      1.40344      .   S
    C320   C316      1.40924      .   S
    C320   C324      1.39851      .   S
    C321   C317      1.40920      .   S
    C321   C325      1.39845      .   S
    C322   C318      1.40926      .   S
    C322   C326      1.39845      .   S
    C323   C319      1.40928      .   S
    C323   C327      1.39844      .   S
    C172   C196      1.40297      .   S
    C171   C87       1.40299      .   S
    C170   C86       1.40296      .   S
    C169   C85       1.40295      .   S
    H125   C324      1.08833      .   S
    H126   C325      1.08835      .   S
    H127   C326      1.08836      .   S
    H128   C327      1.08833      .   S
    C319   C315      1.39720      .   S
    C318   C314      1.39784      .   S
    C317   C313      1.39798      .   S
    C316   C312      1.39790      .   S
    C324   C328      1.38684      .   S
    C325   C329      1.38650      .   S
    C326   C330      1.38683      .   S
    C327   C331      1.38649      .   S
    C220   C216      1.39272      .   S
    C220   H31       0.95671  1_655   S
    C219   C215      1.39267      .   S
    C219   H30       0.90938  1_655   S
    C218   C214      1.39264      .   S
    C218   H29       1.08913      .   S
    C217   C213      1.39262      .   S
    C217   H28       1.08919      .   S
    C215   H26       1.08931      .   S
    C216   H27       1.08923      .   S
    C214   H25       1.08931      .   S
    C213   H24       1.08925      .   S
    C84    C196      1.39235      .   S
    C84    H11       1.08882      .   S
    C187   C87       1.39237      .   S
    C187   H10       1.08886      .   S
    C185   C85       1.39239      .   S
    C185   H8        1.08885      .   S
    C186   C86       1.39239      .   S
    C186   H9        1.08883      .   S
    C196   H15       1.08882      .   S
    C87    H14       1.08878      .   S
    C86    H13       1.08878      .   S
    C85    H12       1.08874      .   S
    C315   H124      1.09105      .   S
    C315   N363      1.34805      .   S
    C314   H123      1.09075      .   S
    C314   N362      1.34776      .   S
    C312   H121      1.09076      .   S
    C312   N360      1.34782      .   S
    C313   H122      1.09015      .   S
    C313   N361      1.34784      .   S
    C329   N361      1.34910      .   S
    C329   H130      1.08889      .   S
    C328   N360      1.34884      .   S
    C328   H129      1.08873      .   S
    C330   N362      1.34884      .   S
    C330   H131      1.08869      .   S
    C331   N363      1.34903      .   S
    C331   H132      1.08889      .   S
