# CIF file generated by openbabel 2.4.90, see http://openbabel.sf.net
data_I
_chemical_name_common ''
_cell_length_a 21.85
_cell_length_b 21.892
_cell_length_c 13.972
_cell_angle_alpha 95.2
_cell_angle_beta 99.23
_cell_angle_gamma 99.89
_space_group_name_H-M_alt 'P 1'
_space_group_name_Hall 'P 1'
loop_
    _symmetry_equiv_pos_as_xyz
    x,y,z
loop_
    _atom_site_label
    _atom_site_type_symbol
    _atom_site_fract_x
    _atom_site_fract_y
    _atom_site_fract_z
    _atom_site_occupancy
    Zn0     Zn   0.18630   0.88161   0.89234   1.000
    Zn1     Zn   0.70195   0.37816   0.89247   1.000
    Zn2     Zn   0.69271   0.88174   0.89247   1.000
    Zn3     Zn   0.16824   0.35857   0.68104   1.000
    Zn4     Zn   0.15900   0.86216   0.68104   1.000
    Zn5     Zn   0.67302   0.35849   0.68090   1.000
    Zn6     Zn   0.66379   0.86208   0.68090   1.000
    Zn7     Zn   0.33947   0.14366   0.12252   1.000
    Zn8     Zn   0.33023   0.64725   0.12252   1.000
    Zn9     Zn   0.84588   0.14379   0.12265   1.000
    Zn10    Zn   0.83665   0.64738   0.12265   1.000
    Zn11    Zn   0.36839   0.16333   0.33409   1.000
    Zn12    Zn   0.35916   0.66692   0.33409   1.000
    Zn13    Zn   0.87318   0.16325   0.33395   1.000
    Zn14    Zn   0.86394   0.66684   0.33395   1.000
    Zn15    Zn   0.19553   0.37802   0.89234   1.000
    C16     C    0.18749   0.48973   0.79648   1.000
    C17     C    0.17820   0.99331   0.79648   1.000
    C18     C    0.69276   0.48973   0.79644   1.000
    C19     C    0.68350   0.99332   0.79645   1.000
    C20     C    0.17844   0.24762   0.78503   1.000
    C21     C    0.16926   0.75122   0.78504   1.000
    C22     C    0.68386   0.24764   0.78510   1.000
    C23     C    0.67464   0.75123   0.78509   1.000
    C24     C    0.05933   0.35975   0.77344   1.000
    C25     C    0.05009   0.86331   0.77340   1.000
    C26     C    0.56506   0.35966   0.77368   1.000
    C27     C    0.55582   0.86324   0.77368   1.000
    C28     C    0.30412   0.37600   0.79184   1.000
    C29     C    0.29488   0.87960   0.79184   1.000
    C30     C    0.80954   0.37598   0.79142   1.000
    C31     C    0.80030   0.87956   0.79143   1.000
    C32     C    0.34868   0.03209   0.21854   1.000
    C33     C    0.33942   0.53568   0.21855   1.000
    C34     C    0.85399   0.03209   0.21851   1.000
    C35     C    0.84469   0.53567   0.21851   1.000
    C36     C    0.35755   0.27417   0.22990   1.000
    C37     C    0.34833   0.77776   0.22989   1.000
    C38     C    0.86293   0.27419   0.22995   1.000
    C39     C    0.85375   0.77779   0.22996   1.000
    C40     C    0.47636   0.16217   0.24131   1.000
    C41     C    0.46712   0.66575   0.24131   1.000
    C42     C    0.98209   0.16210   0.24155   1.000
    C43     C    0.97285   0.66566   0.24155   1.000
    C44     C    0.23188   0.14585   0.22356   1.000
    C45     C    0.22264   0.64943   0.22350   1.000
    C46     C    0.73730   0.14581   0.22310   1.000
    C47     C    0.72806   0.64941   0.22314   1.000
    O48     O    0.17761   0.45562   0.71475   1.000
    O49     O    0.16834   0.95921   0.71475   1.000
    O50     O    0.68293   0.45562   0.71471   1.000
    O51     O    0.67369   0.95921   0.71471   1.000
    O52     O    0.20069   0.47185   0.88040   1.000
    O53     O    0.19144   0.97544   0.88046   1.000
    O54     O    0.70574   0.47184   0.88045   1.000
    O55     O    0.69649   0.97542   0.88045   1.000
    O56     O    0.19160   0.28259   0.86640   1.000
    O57     O    0.18249   0.78619   0.86640   1.000
    O58     O    0.69756   0.28267   0.86650   1.000
    O59     O    0.68833   0.78626   0.86649   1.000
    O60     O    0.16241   0.26483   0.70150   1.000
    O61     O    0.15318   0.76842   0.70152   1.000
    O62     O    0.66716   0.26475   0.70100   1.000
    O63     O    0.65793   0.76834   0.70169   1.000
    O64     O    0.07370   0.35078   0.68890   1.000
    O65     O    0.06446   0.85435   0.68892   1.000
    O66     O    0.57885   0.35072   0.68873   1.000
    O67     O    0.56961   0.85431   0.68870   1.000
    O68     O    0.09708   0.36675   0.85456   1.000
    O69     O    0.08785   0.87033   0.85455   1.000
    O70     O    0.60327   0.36666   0.85431   1.000
    O71     O    0.59403   0.87024   0.85431   1.000
    O72     O    0.26594   0.36672   0.71045   1.000
    O73     O    0.25670   0.87031   0.71045   1.000
    O74     O    0.77102   0.36646   0.71040   1.000
    O75     O    0.76179   0.87004   0.71041   1.000
    O76     O    0.29027   0.38785   0.87571   1.000
    O77     O    0.28104   0.89147   0.87571   1.000
    O78     O    0.79599   0.38808   0.87550   1.000
    O79     O    0.78676   0.89167   0.87550   1.000
    O80     O    0.35849   0.06619   0.30028   1.000
    O81     O    0.34925   0.56978   0.30028   1.000
    O82     O    0.86385   0.06620   0.30024   1.000
    O83     O    0.85457   0.56979   0.30024   1.000
    O84     O    0.33569   0.04998   0.13454   1.000
    O85     O    0.32644   0.55357   0.13454   1.000
    O86     O    0.84074   0.04997   0.13453   1.000
    O87     O    0.83149   0.55356   0.13453   1.000
    O88     O    0.34385   0.23915   0.14850   1.000
    O89     O    0.33462   0.74274   0.14849   1.000
    O90     O    0.84969   0.23921   0.14851   1.000
    O91     O    0.84059   0.74282   0.14850   1.000
    O92     O    0.37425   0.25707   0.31330   1.000
    O93     O    0.36502   0.76065   0.31300   1.000
    O94     O    0.87900   0.25699   0.31347   1.000
    O95     O    0.86977   0.76058   0.31349   1.000
    O96     O    0.46257   0.17110   0.32626   1.000
    O97     O    0.45333   0.67469   0.32626   1.000
    O98     O    0.96772   0.17106   0.32607   1.000
    O99     O    0.95848   0.67463   0.32606   1.000
    O100    O    0.43815   0.15516   0.16068   1.000
    O101    O    0.42891   0.65875   0.16068   1.000
    O102    O    0.94433   0.15508   0.16040   1.000
    O103    O    0.93510   0.65865   0.16043   1.000
    O104    O    0.27039   0.15536   0.30458   1.000
    O105    O    0.26116   0.65895   0.30450   1.000
    O106    O    0.77548   0.15510   0.30454   1.000
    O107    O    0.76624   0.65869   0.30454   1.000
    O108    O    0.24543   0.13374   0.13949   1.000
    O109    O    0.23619   0.63732   0.13949   1.000
    O110    O    0.75114   0.13394   0.13928   1.000
    O111    O    0.74191   0.63756   0.13928   1.000
loop_
    _geom_bond_atom_site_label_1
    _geom_bond_atom_site_label_2
    _geom_bond_distance
    _geom_bond_site_symmetry_2
    _ccdc_geom_bond_type
    Zn7    O84       2.06147      .   S
    Zn7    O108      2.08274      .   S
    Zn7    O88       2.07209      .   S
    Zn7    O100      2.10169      .   S
    Zn8    O85       2.06145      .   S
    Zn8    O109      2.08273      .   S
    Zn8    O89       2.07205      .   S
    Zn8    O101      2.10169      .   S
    Zn9    O86       2.06088      .   S
    Zn9    O110      2.09660      .   S
    Zn9    O90       2.07242      .   S
    Zn9    O102      2.09676      .   S
    Zn10   O87       2.06084      .   S
    Zn10   O111      2.09663      .   S
    Zn10   O91       2.07239      .   S
    Zn10   O103      2.09683      .   S
    O87    C35       1.27550      .   S
    O86    C34       1.27555      .   S
    O84    C32       1.27516      .   S
    O85    C33       1.27526      .   S
    O110   C46       1.27121      .   S
    O111   C47       1.27175      .   S
    O109   C45       1.27191      .   S
    O108   C44       1.27270      .   S
    O89    C37       1.27466      .   S
    O91    C39       1.27500      .   S
    O88    C36       1.27466      .   S
    O90    C38       1.27485      .   S
    O102   C42       1.27069      .   S
    O103   C43       1.27028      .   S
    O101   C41       1.26992      .   S
    O100   C40       1.26990      .   S
    C34    O82       1.27251      .   S
    C35    O83       1.27258      .   S
    C32    O80       1.27260      .   S
    C33    O81       1.27246      .   S
    C46    O106      1.27567      .   S
    C47    O107      1.27524      .   S
    C45    O105      1.27439      .   S
    C44    O104      1.27450      .   S
    C37    O93       1.26950      .   S
    C36    O92       1.27308      .   S
    C38    O94       1.27297      .   S
    C39    O95       1.27299      .   S
    C41    O97       1.27701      .   S
    C40    O96       1.27699      .   S
    C42    O98       1.27661      .   S
    C43    O99       1.27650      .   S
    O82    Zn13      2.10153      .   S
    O83    Zn14      2.10143      .   S
    O81    Zn12      2.10222      .   S
    O80    Zn11      2.10224      .   S
    O105   Zn12      2.08833      .   S
    O107   Zn14      2.08142      .   S
    O106   Zn13      2.08142      .   S
    O104   Zn11      2.08830      .   S
    O93    Zn12      2.08450      .   S
    O92    Zn11      2.08371      .   S
    O94    Zn13      2.08275      .   S
    O95    Zn14      2.08267      .   S
    O99    Zn14      2.06490      .   S
    O98    Zn13      2.06483      .   S
    O97    Zn12      2.05670      .   S
    O96    Zn11      2.05692      .   S
    Zn6    O67       2.05683      .   S
    Zn6    O63       2.08371      .   S
    Zn6    O75       2.08833      .   S
    Zn6    O51       2.10203      .   S
    Zn5    O66       2.05670      .   S
    Zn5    O62       2.08143      .   S
    Zn5    O74       2.08830      .   S
    Zn5    O50       2.10201      .   S
    Zn3    O64       2.06480      .   S
    Zn3    O60       2.08267      .   S
    Zn3    O72       2.08142      .   S
    Zn3    O48       2.10143      .   S
    Zn4    O65       2.06483      .   S
    Zn4    O61       2.08275      .   S
    Zn4    O73       2.08142      .   S
    Zn4    O49       2.10150      .   S
    O67    C27       1.27738      .   S
    O66    C26       1.27701      .   S
    O64    C24       1.27690      .   S
    O65    C25       1.27608      .   S
    O62    C22       1.28194      .   S
    O60    C20       1.27303      .   S
    O61    C21       1.27301      .   S
    O63    C23       1.27321      .   S
    O74    C30       1.27460      .   S
    O75    C31       1.27450      .   S
    O73    C29       1.27513      .   S
    O72    C28       1.27514      .   S
    O51    C19       1.27271      .   S
    O50    C18       1.27256      .   S
    O48    C16       1.27248      .   S
    O49    C17       1.27241      .   S
    C25    O69       1.27069      .   S
    C24    O68       1.27029      .   S
    C27    O71       1.26992      .   S
    C26    O70       1.26992      .   S
    C20    O56       1.27399      .   S
    C21    O57       1.27385      .   S
    C23    O59       1.27477      .   S
    C22    O58       1.27477      .   S
    C30    O78       1.27280      .   S
    C31    O79       1.27261      .   S
    C29    O77       1.27186      .   S
    C28    O76       1.27189      .   S
    C18    O54       1.27526      .   S
    C19    O55       1.27526      .   S
    C17    O53       1.27543      .   S
    C16    O52       1.27464      .   S
    O70    Zn1       2.10169      .   S
    O71    Zn2       2.10169      .   S
    O69    Zn0       2.09682      .   S
    O68    Zn15      2.09683      .   S
    O57    Zn0       2.07251      .   S
    O56    Zn15      2.07230      .   S
    O59    Zn2       2.07187      .   S
    O58    Zn1       2.07205      .   S
    O78    Zn1       2.08274      .   S
    O79    Zn2       2.08295      .   S
    O76    Zn15      2.09662      .   S
    O77    Zn0       2.09658      .   S
    O52    Zn15      2.06121      .   S
    O54    Zn1       2.06145      .   S
    O55    Zn2       2.06147      .   S
    O53    Zn0       2.06110      .   S
    Zn15   Zn3       2.89362      .   S
    Zn0    Zn4       2.89362      .   S
    Zn1    Zn5       2.89821      .   S
    Zn2    Zn6       2.89820      .   S
    Zn7    Zn11      2.89820      .   S
    Zn8    Zn12      2.89821      .   S
    Zn9    Zn13      2.89363      .   S
    Zn10   Zn14      2.89362      .   S
