# CIF file generated by openbabel 2.4.90, see http://openbabel.sf.net
data_I
_chemical_name_common ''
_cell_length_a 21.85
_cell_length_b 21.892
_cell_length_c 13.972
_cell_angle_alpha 95.2
_cell_angle_beta 99.23
_cell_angle_gamma 99.89
_space_group_name_H-M_alt 'P 1'
_space_group_name_Hall 'P 1'
loop_
    _symmetry_equiv_pos_as_xyz
    x,y,z
loop_
    _atom_site_label
    _atom_site_type_symbol
    _atom_site_fract_x
    _atom_site_fract_y
    _atom_site_fract_z
    _atom_site_occupancy
    C0      C    0.18749   0.48973   0.79648   1.000
    C1      C    0.17820   0.99331   0.79648   1.000
    C2      C    0.69276   0.48973   0.79644   1.000
    C3      C    0.68350   0.99332   0.79645   1.000
    C4      C    0.17844   0.24762   0.78503   1.000
    C5      C    0.16926   0.75122   0.78504   1.000
    C6      C    0.68386   0.24764   0.78510   1.000
    C7      C    0.67464   0.75123   0.78509   1.000
    C8      C    0.05933   0.35975   0.77344   1.000
    C9      C    0.05009   0.86331   0.77340   1.000
    C10     C    0.56506   0.35966   0.77368   1.000
    C11     C    0.55582   0.86324   0.77368   1.000
    C12     C    0.30412   0.37600   0.79184   1.000
    C13     C    0.29488   0.87960   0.79184   1.000
    C14     C    0.80954   0.37598   0.79142   1.000
    C15     C    0.80030   0.87956   0.79143   1.000
    C16     C    0.34868   0.03209   0.21854   1.000
    C17     C    0.33942   0.53568   0.21855   1.000
    C18     C    0.85399   0.03209   0.21851   1.000
    C19     C    0.84469   0.53567   0.21851   1.000
    C20     C    0.35755   0.27417   0.22990   1.000
    C21     C    0.34833   0.77776   0.22989   1.000
    C22     C    0.86293   0.27419   0.22995   1.000
    C23     C    0.85375   0.77779   0.22996   1.000
    C24     C    0.47636   0.16217   0.24131   1.000
    C25     C    0.46712   0.66575   0.24131   1.000
    C26     C    0.98209   0.16210   0.24155   1.000
    C27     C    0.97285   0.66566   0.24155   1.000
    C28     C    0.23188   0.14585   0.22356   1.000
    C29     C    0.22264   0.64943   0.22350   1.000
    C30     C    0.73730   0.14581   0.22310   1.000
    C31     C    0.72806   0.64941   0.22314   1.000
