# CIF file generated by openbabel 2.4.90, see http://openbabel.sf.net
data_I
_chemical_name_common ''
_cell_length_a 21.85
_cell_length_b 21.892
_cell_length_c 13.972
_cell_angle_alpha 95.2
_cell_angle_beta 99.23
_cell_angle_gamma 99.89
_space_group_name_H-M_alt 'P 1'
_space_group_name_Hall 'P 1'
loop_
    _symmetry_equiv_pos_as_xyz
    x,y,z
loop_
    _atom_site_label
    _atom_site_type_symbol
    _atom_site_fract_x
    _atom_site_fract_y
    _atom_site_fract_z
    _atom_site_occupancy
    N0      N    0.69313   0.11694   0.79115   1.000
    N1      N    0.60690   0.15461   0.23198   1.000
    N2      N    0.14396   0.37445   0.27706   1.000
    N3      N    0.17838   0.62049   0.79121   1.000
    N4      N    0.38251   0.65087   0.73800   1.000
    N5      N    0.85380   0.40492   0.22374   1.000
    N6      N    0.10138   0.15452   0.23264   1.000
    N7      N    0.13584   0.87777   0.27706   1.000
    N8      N    0.42528   0.87080   0.78299   1.000
    N9      N    0.84464   0.90852   0.22378   1.000
    N10     N    0.64968   0.37455   0.27697   1.000
    N11     N    0.43452   0.36721   0.78301   1.000
    N12     N    0.93749   0.36733   0.78234   1.000
    N13     N    0.64120   0.87788   0.27699   1.000
    N14     N    0.33905   0.90846   0.22384   1.000
    N15     N    0.18755   0.11689   0.79121   1.000
    N16     N    0.92947   0.87089   0.78235   1.000
    N17     N    0.59766   0.65820   0.23197   1.000
    N18     N    0.09213   0.65808   0.23259   1.000
    N19     N    0.39099   0.14721   0.73800   1.000
    N20     N    0.68394   0.62054   0.79113   1.000
    N21     N    0.34824   0.40487   0.22385   1.000
    N22     N    0.88751   0.65096   0.73788   1.000
    N23     N    0.89517   0.14732   0.73793   1.000
    Zr24    Zr   0.68776   0.36832   0.78654   1.000
    O25     O    0.58532   0.36628   0.78305   1.000
    O26     O    0.67385   0.36732   0.61405   1.000
    O27     O    0.68869   0.26686   0.78774   1.000
    O28     O    0.68753   0.47019   0.78984   1.000
    O29     O    0.78909   0.36951   0.78612   1.000
    O30     O    0.67722   0.37038   0.95232   1.000
    Zr31    Zr   0.35365   0.15350   0.22840   1.000
    O32     O    0.36738   0.15448   0.40091   1.000
    O33     O    0.34699   0.05433   0.22512   1.000
    O34     O    0.35271   0.25496   0.22723   1.000
    O35     O    0.45610   0.15554   0.23191   1.000
    O36     O    0.25169   0.15232   0.22884   1.000
    O37     O    0.36400   0.15142   0.06264   1.000
    Zr38    Zr   0.17309   0.87192   0.78664   1.000
    O39     O    0.27503   0.87308   0.78646   1.000
    O40     O    0.17400   0.77044   0.78780   1.000
    O41     O    0.07439   0.86992   0.78281   1.000
    O42     O    0.17973   0.97107   0.78992   1.000
    O43     O    0.16255   0.87385   0.95236   1.000
    O44     O    0.15947   0.87083   0.61414   1.000
    Zr45    Zr   0.67853   0.87191   0.78659   1.000
    O46     O    0.67947   0.77045   0.78776   1.000
    O47     O    0.68520   0.97108   0.78987   1.000
    O48     O    0.66481   0.87085   0.61407   1.000
    O49     O    0.66818   0.87391   0.95235   1.000
    O50     O    0.57608   0.86987   0.78307   1.000
    O51     O    0.78015   0.87309   0.78615   1.000
    Zr52    Zr   0.18232   0.36833   0.78663   1.000
    O53     O    0.08295   0.36635   0.78281   1.000
    O54     O    0.18320   0.26684   0.78779   1.000
    O55     O    0.18207   0.47018   0.78992   1.000
    O56     O    0.16842   0.36731   0.61414   1.000
    O57     O    0.28426   0.36948   0.78646   1.000
    O58     O    0.17150   0.37033   0.95235   1.000
    Zr59    Zr   0.34442   0.65709   0.22836   1.000
    O60     O    0.35833   0.65809   0.40090   1.000
    O61     O    0.34465   0.55522   0.22510   1.000
    O62     O    0.34349   0.75855   0.22721   1.000
    O63     O    0.44686   0.65913   0.23189   1.000
    O64     O    0.24245   0.65590   0.22881   1.000
    O65     O    0.35496   0.65503   0.06262   1.000
    Zr66    Zr   0.85909   0.15348   0.22834   1.000
    O67     O    0.85245   0.05434   0.22506   1.000
    O68     O    0.86934   0.15147   0.06262   1.000
    O69     O    0.85819   0.25497   0.22717   1.000
    O70     O    0.95746   0.15549   0.23216   1.000
    O71     O    0.75715   0.15233   0.22851   1.000
    O72     O    0.87242   0.15449   0.40084   1.000
    Zr73    Zr   0.84986   0.65707   0.22835   1.000
    O74     O    0.85011   0.55523   0.22506   1.000
    O75     O    0.74792   0.65593   0.22851   1.000
    O76     O    0.84899   0.75857   0.22719   1.000
    O77     O    0.94822   0.65906   0.23215   1.000
    O78     O    0.86051   0.65508   0.06261   1.000
    O79     O    0.86358   0.65810   0.40083   1.000
loop_
    _geom_bond_atom_site_label_1
    _geom_bond_atom_site_label_2
    _geom_bond_distance
    _geom_bond_site_symmetry_2
    _ccdc_geom_bond_type
    Zr24   O25       2.22373      .   S
    N11    O25       3.29845      .   S
    Zr24   O26       2.37799      .   S
    N10    O26       4.67443      .   S
    Zr24   O27       2.22632      .   S
    N0     O27       3.30434      .   S
    Zr24   O28       2.22737      .   S
    N20    O28       3.30434      .   S
    Zr24   O29       2.21051      .   S
    N12    O29       3.25994      .   S
    Zr24   O30       2.36131      .   S
    N10    O30       4.66536  1_554   S
    Zr31   O32       2.37840      .   S
    N19    O32       4.67532      .   S
    Zr31   O33       2.14674      .   S
    N14    O33       3.16632  1_565   S
    Zr31   O34       2.22626      .   S
    N21    O34       3.30429      .   S
    Zr31   O35       2.22370      .   S
    N1     O35       3.29842      .   S
    Zr31   O36       2.22454      .   S
    N6     O36       3.30191      .   S
    Zr31   O37       2.35995      .   S
    N19    O37       4.66162  1_556   S
    Zr38   O39       2.22362      .   S
    N8     O39       3.30000      .   S
    Zr38   O40       2.22675      .   S
    N3     O40       3.30483      .   S
    Zr38   O41       2.14138      .   S
    N16    O41       3.16921  1_655   S
    Zr38   O42       2.14620      .   S
    N15    O42       3.16565  1_545   S
    Zr38   O43       2.36076      .   S
    N7     O43       4.66104  1_554   S
    Zr38   O44       2.37797      .   S
    N7     O44       4.67412      .   S
    Zr45   O46       2.22626      .   S
    N20    O46       3.30429      .   S
    Zr45   O47       2.14674      .   S
    N0     O47       3.16632  1_545   S
    Zr45   O48       2.37827      .   S
    N13    O48       4.67455      .   S
    Zr45   O49       2.36003      .   S
    N13    O49       4.66181  1_554   S
    Zr45   O50       2.22369      .   S
    N8     O50       3.29838      .   S
    Zr45   O51       2.21725      .   S
    N16    O51       3.28003      .   S
    Zr52   O53       2.15613      .   S
    N12    O53       3.18099  1_655   S
    Zr52   O54       2.22674      .   S
    N15    O54       3.30481      .   S
    Zr52   O55       2.22688      .   S
    N3     O55       3.30390      .   S
    Zr52   O56       2.37787      .   S
    N2     O56       4.67390      .   S
    Zr52   O57       2.22369      .   S
    N11    O57       3.30008      .   S
    Zr52   O58       2.36215      .   S
    N2     O58       4.66621  1_554   S
    Zr59   O60       2.37849      .   S
    N4     O60       4.67479      .   S
    Zr59   O61       2.22740      .   S
    N21    O61       3.30439      .   S
    Zr59   O62       2.22626      .   S
    N14    O62       3.30428      .   S
    Zr59   O63       2.22367      .   S
    N17    O63       3.29836      .   S
    Zr59   O64       2.22453      .   S
    N18    O64       3.30188      .   S
    Zr59   O65       2.36082      .   S
    N4     O65       4.66501  1_556   S
    Zr66   O67       2.14620      .   S
    N9     O67       3.16565  1_565   S
    Zr66   O68       2.35893      .   S
    N23    O68       4.65528  1_556   S
    Zr66   O69       2.22675      .   S
    N5     O69       3.30487      .   S
    Zr66   O70       2.13406      .   S
    N6     O70       3.14729  1_455   S
    Zr66   O71       2.22362      .   S
    N1     O71       3.30001      .   S
    Zr66   O72       2.37850      .   S
    N23    O72       4.67586      .   S
    Zr73   O74       2.22688      .   S
    N5     O74       3.30386      .   S
    Zr73   O75       2.22371      .   S
    N17    O75       3.30009      .   S
    Zr73   O76       2.22673      .   S
    N9     O76       3.30480      .   S
    Zr73   O77       2.13401      .   S
    N18    O77       3.14728  1_455   S
    Zr73   O78       2.36138      .   S
    N22    O78       4.66315  1_556   S
    Zr73   O79       2.37793      .   S
    N22    O79       4.67397      .   S
