# CIF file generated by openbabel 2.4.90, see http://openbabel.sf.net
data_I
_chemical_name_common ''
_cell_length_a 21.85
_cell_length_b 21.892
_cell_length_c 13.972
_cell_angle_alpha 95.2
_cell_angle_beta 99.23
_cell_angle_gamma 99.89
_space_group_name_H-M_alt 'P 1'
_space_group_name_Hall 'P 1'
loop_
    _symmetry_equiv_pos_as_xyz
    x,y,z
loop_
    _atom_site_label
    _atom_site_type_symbol
    _atom_site_fract_x
    _atom_site_fract_y
    _atom_site_fract_z
    _atom_site_occupancy
    C0      C    0.19553   0.37802   0.89234   1.000
    C1      C    0.18630   0.88161   0.89234   1.000
    C2      C    0.70195   0.37816   0.89247   1.000
    C3      C    0.69271   0.88174   0.89247   1.000
    C4      C    0.16824   0.35857   0.68104   1.000
    C5      C    0.15900   0.86216   0.68104   1.000
    C6      C    0.67302   0.35849   0.68090   1.000
    C7      C    0.66379   0.86208   0.68090   1.000
    C8      C    0.33947   0.14367   0.12252   1.000
    C9      C    0.33023   0.64725   0.12252   1.000
    C10     C    0.84588   0.14379   0.12265   1.000
    C11     C    0.83665   0.64738   0.12265   1.000
    C12     C    0.36839   0.16333   0.33409   1.000
    C13     C    0.35916   0.66692   0.33409   1.000
    C14     C    0.87318   0.16325   0.33395   1.000
    C15     C    0.86394   0.66684   0.33395   1.000
    C16     C    0.15334   0.04099   0.64056   1.000
    C17     C    0.14420   0.54459   0.64054   1.000
    C18     C    0.65861   0.04099   0.64057   1.000
    C19     C    0.64940   0.54458   0.64057   1.000
    C20     C    0.14471   0.15392   0.63560   1.000
    C21     C    0.13558   0.65753   0.63559   1.000
    C22     C    0.65001   0.15395   0.63567   1.000
    C23     C    0.64080   0.65754   0.63566   1.000
    C24     C    0.22275   0.19242   0.94188   1.000
    C25     C    0.21356   0.69601   0.94188   1.000
    C26     C    0.72872   0.19252   0.94170   1.000
    C27     C    0.71958   0.69612   0.94167   1.000
    C28     C    0.22984   0.08032   0.94723   1.000
    C29     C    0.22065   0.58392   0.94724   1.000
    C30     C    0.73571   0.08041   0.94705   1.000
    C31     C    0.72656   0.58401   0.94702   1.000
    C32     C    0.46437   0.33300   0.62519   1.000
    C33     C    0.45512   0.83656   0.62500   1.000
    C34     C    0.96984   0.33288   0.62459   1.000
    C35     C    0.96058   0.83640   0.62460   1.000
    C36     C    0.35197   0.34005   0.63336   1.000
    C37     C    0.34273   0.84361   0.63337   1.000
    C38     C    0.85746   0.33986   0.63282   1.000
    C39     C    0.84820   0.84339   0.63283   1.000
    C40     C    0.40468   0.40171   0.94082   1.000
    C41     C    0.39544   0.90534   0.94081   1.000
    C42     C    0.91029   0.40207   0.94011   1.000
    C43     C    0.90106   0.90566   0.94010   1.000
    C44     C    0.51705   0.39317   0.93282   1.000
    C45     C    0.50781   0.89679   0.93280   1.000
    C46     C    0.00000   0.39357   0.93207   1.000
    C47     C    0.00000   0.89716   0.93206   1.000
    C48     C    0.17237   0.45889   0.04743   1.000
    C49     C    0.16305   0.96248   0.04738   1.000
    C50     C    0.67798   0.45901   0.04731   1.000
    C51     C    0.66877   0.96259   0.04729   1.000
    C52     C    0.14256   0.26337   0.19469   1.000
    C53     C    0.13356   0.76699   0.19477   1.000
    C54     C    0.64906   0.26357   0.19494   1.000
    C55     C    0.63990   0.76718   0.19497   1.000
    C56     C    0.14600   0.26585   0.01657   1.000
    C57     C    0.13697   0.76946   0.01664   1.000
    C58     C    0.65268   0.26603   0.01687   1.000
    C59     C    0.64348   0.76961   0.01689   1.000
    C60     C    0.25823   0.38773   0.36875   1.000
    C61     C    0.24905   0.89151   0.36885   1.000
    C62     C    0.76394   0.38829   0.36925   1.000
    C63     C    0.75476   0.89192   0.36930   1.000
    C64     C    0.25918   0.38245   0.54810   1.000
    C65     C    0.24996   0.88621   0.54819   1.000
    C66     C    0.76458   0.38288   0.54852   1.000
    C67     C    0.75537   0.88650   0.54856   1.000
    C68     C    0.06445   0.33356   0.50278   1.000
    C69     C    0.05525   0.83703   0.50271   1.000
    C70     C    0.56988   0.33326   0.50219   1.000
    C71     C    0.56067   0.83687   0.50217   1.000
    C72     C    0.21979   0.49388   0.29380   1.000
    C73     C    0.21059   0.99766   0.29347   1.000
    C74     C    0.72524   0.49442   0.29300   1.000
    C75     C    0.71608   0.99804   0.29325   1.000
    C76     C    0.18241   0.01685   0.19578   1.000
    C77     C    0.17355   0.52046   0.19586   1.000
    C78     C    0.68763   0.01694   0.19555   1.000
    C79     C    0.67835   0.52051   0.19557   1.000
    C80     C    0.13715   0.48499   0.28757   1.000
    C81     C    0.12798   0.98846   0.28784   1.000
    C82     C    0.64261   0.48482   0.28771   1.000
    C83     C    0.63346   0.98843   0.28774   1.000
    C84     C    0.03431   0.29809   0.24142   1.000
    C85     C    0.02521   0.80154   0.24139   1.000
    C86     C    0.54034   0.29806   0.24077   1.000
    C87     C    0.53115   0.80164   0.24079   1.000
    C88     C    0.50478   0.31390   0.34342   1.000
    C89     C    0.49559   0.81756   0.34341   1.000
    C90     C    0.00000   0.31440   0.34420   1.000
    C91     C    0.00000   0.81785   0.34412   1.000
    C92     C    0.02428   0.37501   0.27462   1.000
    C93     C    0.01509   0.87844   0.27446   1.000
    C94     C    0.52990   0.37480   0.27425   1.000
    C95     C    0.52074   0.87841   0.27417   1.000
    C96     C    0.38277   0.48082   0.37442   1.000
    C97     C    0.37357   0.98441   0.37442   1.000
    C98     C    0.88799   0.48082   0.37444   1.000
    C99     C    0.87886   0.98443   0.37443   1.000
    C100    C    0.39138   0.36787   0.37933   1.000
    C101    C    0.38217   0.87146   0.37932   1.000
    C102    C    0.89661   0.36788   0.37900   1.000
    C103    C    0.88748   0.87149   0.37938   1.000
    C104    C    0.31261   0.32928   0.07331   1.000
    C105    C    0.30346   0.83289   0.07329   1.000
    C106    C    0.81862   0.32940   0.07311   1.000
    C107    C    0.80943   0.83299   0.07312   1.000
    C108    C    0.30563   0.44140   0.06796   1.000
    C109    C    0.29647   0.94500   0.06794   1.000
    C110    C    0.81153   0.44149   0.06775   1.000
    C111    C    0.80234   0.94508   0.06776   1.000
    C112    C    0.07160   0.18901   0.39039   1.000
    C113    C    0.06234   0.69253   0.39000   1.000
    C114    C    0.57706   0.18885   0.38979   1.000
    C115    C    0.56781   0.69240   0.38980   1.000
    C116    C    0.18398   0.18202   0.38216   1.000
    C117    C    0.17472   0.68555   0.38217   1.000
    C118    C    0.68945   0.18180   0.38162   1.000
    C119    C    0.68020   0.68535   0.38160   1.000
    C120    C    0.13113   0.11976   0.07488   1.000
    C121    C    0.12189   0.62335   0.07488   1.000
    C122    C    0.63674   0.12008   0.07418   1.000
    C123    C    0.62751   0.62371   0.07416   1.000
    C124    C    0.01883   0.12826   0.08293   1.000
    C125    C    0.00959   0.63184   0.08292   1.000
    C126    C    0.52437   0.12862   0.08218   1.000
    C127    C    0.51514   0.63225   0.08217   1.000
    C128    C    0.36342   0.06281   0.96769   1.000
    C129    C    0.35421   0.56641   0.96760   1.000
    C130    C    0.86913   0.06293   0.96760   1.000
    C131    C    0.85981   0.56652   0.96755   1.000
    C132    C    0.39229   0.25824   0.82003   1.000
    C133    C    0.38312   0.76184   0.82006   1.000
    C134    C    0.89863   0.25843   0.82023   1.000
    C135    C    0.88963   0.76205   0.82031   1.000
    C136    C    0.38870   0.25580   0.99811   1.000
    C137    C    0.37951   0.75939   0.99813   1.000
    C138    C    0.89522   0.25595   0.99836   1.000
    C139    C    0.88620   0.75956   0.99843   1.000
    C140    C    0.27743   0.13351   0.64570   1.000
    C141    C    0.26825   0.63713   0.64570   1.000
    C142    C    0.78314   0.13392   0.64614   1.000
    C143    C    0.77396   0.63771   0.64620   1.000
    C144    C    0.27681   0.13892   0.46644   1.000
    C145    C    0.26761   0.64254   0.46648   1.000
    C146    C    0.78223   0.13922   0.46681   1.000
    C147    C    0.77301   0.64299   0.46600   1.000
    C148    C    0.47151   0.18854   0.51282   1.000
    C149    C    0.46230   0.69216   0.51280   1.000
    C150    C    0.97693   0.18837   0.51228   1.000
    C151    C    0.96773   0.69184   0.51220   1.000
    C152    C    0.31611   0.02738   0.72170   1.000
    C153    C    0.30695   0.53100   0.72169   1.000
    C154    C    0.82159   0.02776   0.72151   1.000
    C155    C    0.81240   0.53154   0.72117   1.000
    C156    C    0.35384   0.50490   0.81941   1.000
    C157    C    0.34456   0.00000   0.81943   1.000
    C158    C    0.85862   0.50496   0.81910   1.000
    C159    C    0.84977   0.00000   0.81919   1.000
    C160    C    0.39873   0.03699   0.72724   1.000
    C161    C    0.38957   0.54060   0.72727   1.000
    C162    C    0.90420   0.03696   0.72714   1.000
    C163    C    0.89504   0.54043   0.72742   1.000
    C164    C    0.50103   0.22378   0.77420   1.000
    C165    C    0.49184   0.72736   0.77420   1.000
    C166    C    0.00000   0.22387   0.77360   1.000
    C167    C    0.99788   0.72732   0.77356   1.000
    C168    C    0.03089   0.20755   0.67087   1.000
    C169    C    0.02173   0.71100   0.67076   1.000
    C170    C    0.53660   0.20786   0.67158   1.000
    C171    C    0.52740   0.71152   0.67157   1.000
    C172    C    0.51145   0.14701   0.74082   1.000
    C173    C    0.50229   0.65062   0.74073   1.000
    C174    C    0.00000   0.14696   0.74053   1.000
    C175    C    0.00000   0.65039   0.74037   1.000
    C176    C    0.18749   0.48973   0.79648   1.000
    C177    C    0.17820   0.99331   0.79648   1.000
    C178    C    0.69276   0.48973   0.79644   1.000
    C179    C    0.68350   0.99332   0.79645   1.000
    C180    C    0.19221   0.05379   0.79392   1.000
    C181    C    0.18305   0.55739   0.79391   1.000
    C182    C    0.69770   0.05383   0.79385   1.000
    C183    C    0.68851   0.55743   0.79383   1.000
    C184    C    0.16820   0.07471   0.70603   1.000
    C185    C    0.15905   0.57831   0.70602   1.000
    C186    C    0.67359   0.07474   0.70601   1.000
    C187    C    0.66440   0.57833   0.70600   1.000
    C188    C    0.16335   0.13716   0.70337   1.000
    C189    C    0.15420   0.64076   0.70336   1.000
    C190    C    0.66877   0.13719   0.70337   1.000
    C191    C    0.65956   0.64079   0.70336   1.000
    C192    C    0.18278   0.18000   0.78838   1.000
    C193    C    0.17361   0.68360   0.78838   1.000
    C194    C    0.68834   0.18005   0.78835   1.000
    C195    C    0.67915   0.68364   0.78834   1.000
    C196    C    0.20697   0.15908   0.87614   1.000
    C197    C    0.19779   0.66268   0.87614   1.000
    C198    C    0.71277   0.15916   0.87601   1.000
    C199    C    0.70360   0.66277   0.87599   1.000
    C200    C    0.21131   0.09654   0.87901   1.000
    C201    C    0.20213   0.60013   0.87901   1.000
    C202    C    0.71706   0.09661   0.87888   1.000
    C203    C    0.70789   0.60021   0.87885   1.000
    C204    C    0.17844   0.24762   0.78503   1.000
    C205    C    0.16926   0.75122   0.78504   1.000
    C206    C    0.68385   0.24764   0.78510   1.000
    C207    C    0.67464   0.75123   0.78509   1.000
    C208    C    0.05933   0.35975   0.77344   1.000
    C209    C    0.05009   0.86331   0.77340   1.000
    C210    C    0.56506   0.35966   0.77368   1.000
    C211    C    0.55582   0.86324   0.77368   1.000
    C212    C    0.49740   0.36286   0.77855   1.000
    C213    C    0.48816   0.86645   0.77855   1.000
    C214    C    0.00000   0.36301   0.77780   1.000
    C215    C    0.99375   0.86657   0.77787   1.000
    C216    C    0.45085   0.34801   0.69398   1.000
    C217    C    0.44161   0.85158   0.69398   1.000
    C218    C    0.95639   0.34803   0.69337   1.000
    C219    C    0.94714   0.85156   0.69338   1.000
    C220    C    0.38855   0.35239   0.69839   1.000
    C221    C    0.37931   0.85596   0.69839   1.000
    C222    C    0.89405   0.35235   0.69782   1.000
    C223    C    0.88480   0.85590   0.69783   1.000
    C224    C    0.37167   0.37212   0.78733   1.000
    C225    C    0.36243   0.87571   0.78732   1.000
    C226    C    0.87712   0.37218   0.78668   1.000
    C227    C    0.86788   0.87575   0.78668   1.000
    C228    C    0.41821   0.38681   0.87198   1.000
    C229    C    0.40898   0.89042   0.87197   1.000
    C230    C    0.92375   0.38707   0.87125   1.000
    C231    C    0.91451   0.89065   0.87125   1.000
    C232    C    0.48047   0.38200   0.86767   1.000
    C233    C    0.47123   0.88561   0.86766   1.000
    C234    C    0.98602   0.38231   0.86692   1.000
    C235    C    0.97678   0.88588   0.86690   1.000
    C236    C    0.30412   0.37600   0.79184   1.000
    C237    C    0.29488   0.87960   0.79184   1.000
    C238    C    0.80954   0.37598   0.79142   1.000
    C239    C    0.80030   0.87956   0.79143   1.000
    C240    C    0.16597   0.41675   0.08364   1.000
    C241    C    0.15672   0.92035   0.08360   1.000
    C242    C    0.67179   0.41689   0.08361   1.000
    C243    C    0.66259   0.92048   0.08360   1.000
    C244    C    0.16522   0.42065   0.18385   1.000
    C245    C    0.15598   0.92425   0.18384   1.000
    C246    C    0.67092   0.42080   0.18378   1.000
    C247    C    0.66174   0.92440   0.18378   1.000
    C248    C    0.15624   0.36402   0.22493   1.000
    C249    C    0.14709   0.86764   0.22490   1.000
    C250    C    0.66219   0.36420   0.22497   1.000
    C251    C    0.65302   0.86781   0.22499   1.000
    C252    C    0.14905   0.30772   0.16468   1.000
    C253    C    0.13998   0.81133   0.16473   1.000
    C254    C    0.65537   0.30791   0.16484   1.000
    C255    C    0.64620   0.81151   0.16487   1.000
    C256    C    0.15103   0.30849   0.06607   1.000
    C257    C    0.14194   0.81210   0.06612   1.000
    C258    C    0.65746   0.30867   0.06627   1.000
    C259    C    0.64827   0.81226   0.06629   1.000
    C260    C    0.15639   0.36267   0.33126   1.000
    C261    C    0.14722   0.86628   0.33128   1.000
    C262    C    0.66215   0.36284   0.33126   1.000
    C263    C    0.65297   0.86645   0.33128   1.000
    C264    C    0.21419   0.37588   0.39597   1.000
    C265    C    0.20500   0.87958   0.39603   1.000
    C266    C    0.71984   0.37625   0.39624   1.000
    C267    C    0.71066   0.87987   0.39627   1.000
    C268    C    0.21536   0.37292   0.49499   1.000
    C269    C    0.20615   0.87662   0.49504   1.000
    C270    C    0.72084   0.37323   0.49521   1.000
    C271    C    0.71165   0.87685   0.49524   1.000
    C272    C    0.10612   0.34514   0.46932   1.000
    C273    C    0.09692   0.84868   0.46929   1.000
    C274    C    0.61163   0.34504   0.46900   1.000
    C275    C    0.60243   0.84865   0.46899   1.000
    C276    C    0.10015   0.34676   0.36843   1.000
    C277    C    0.09097   0.85030   0.36840   1.000
    C278    C    0.60583   0.34672   0.36814   1.000
    C279    C    0.59664   0.85033   0.36814   1.000
    C280    C    0.17421   0.48325   0.24323   1.000
    C281    C    0.16490   0.98685   0.24319   1.000
    C282    C    0.67954   0.48339   0.24304   1.000
    C283    C    0.67037   0.98699   0.24303   1.000
    C284    C    0.03609   0.33274   0.30425   1.000
    C285    C    0.02693   0.83620   0.30417   1.000
    C286    C    0.54187   0.33253   0.30370   1.000
    C287    C    0.53268   0.83614   0.30369   1.000
    C288    C    0.34868   0.03209   0.21854   1.000
    C289    C    0.33942   0.53567   0.21855   1.000
    C290    C    0.85399   0.03209   0.21851   1.000
    C291    C    0.84469   0.53567   0.21851   1.000
    C292    C    0.34367   0.46798   0.22110   1.000
    C293    C    0.33448   0.97158   0.22114   1.000
    C294    C    0.84914   0.46802   0.22108   1.000
    C295    C    0.83998   0.97162   0.22107   1.000
    C296    C    0.36778   0.44708   0.30899   1.000
    C297    C    0.35859   0.95067   0.30898   1.000
    C298    C    0.87314   0.44710   0.30897   1.000
    C299    C    0.86400   0.95070   0.30896   1.000
    C300    C    0.37261   0.38462   0.31163   1.000
    C301    C    0.36341   0.88821   0.31162   1.000
    C302    C    0.87799   0.38465   0.31160   1.000
    C303    C    0.86885   0.88825   0.31162   1.000
    C304    C    0.35303   0.34176   0.22665   1.000
    C305    C    0.34384   0.84536   0.22664   1.000
    C306    C    0.85857   0.34181   0.22661   1.000
    C307    C    0.84941   0.84541   0.22661   1.000
    C308    C    0.32858   0.36264   0.13900   1.000
    C309    C    0.31941   0.86625   0.13898   1.000
    C310    C    0.83439   0.36273   0.13885   1.000
    C311    C    0.82522   0.86633   0.13885   1.000
    C312    C    0.32429   0.42520   0.13613   1.000
    C313    C    0.31512   0.92880   0.13612   1.000
    C314    C    0.83005   0.42528   0.13598   1.000
    C315    C    0.82088   0.92887   0.13598   1.000
    C316    C    0.35755   0.27417   0.22990   1.000
    C317    C    0.34833   0.77776   0.22989   1.000
    C318    C    0.86293   0.27419   0.22995   1.000
    C319    C    0.85375   0.77779   0.22996   1.000
    C320    C    0.47636   0.16216   0.24131   1.000
    C321    C    0.46712   0.66575   0.24131   1.000
    C322    C    0.98209   0.16210   0.24155   1.000
    C323    C    0.97285   0.66566   0.24155   1.000
    C324    C    0.03843   0.15884   0.23712   1.000
    C325    C    0.02919   0.66239   0.23712   1.000
    C326    C    0.54402   0.15896   0.23644   1.000
    C327    C    0.53478   0.66255   0.23640   1.000
    C328    C    0.08504   0.17385   0.32161   1.000
    C329    C    0.07579   0.67738   0.32160   1.000
    C330    C    0.59057   0.17383   0.32101   1.000
    C331    C    0.58133   0.67740   0.32101   1.000
    C332    C    0.14738   0.16951   0.31716   1.000
    C333    C    0.13813   0.67306   0.31717   1.000
    C334    C    0.65287   0.16945   0.31660   1.000
    C335    C    0.64363   0.67303   0.31659   1.000
    C336    C    0.16430   0.14966   0.22830   1.000
    C337    C    0.15506   0.65323   0.22830   1.000
    C338    C    0.66975   0.14970   0.22767   1.000
    C339    C    0.66051   0.65330   0.22766   1.000
    C340    C    0.11767   0.13476   0.14374   1.000
    C341    C    0.10843   0.63834   0.14370   1.000
    C342    C    0.62321   0.13499   0.14302   1.000
    C343    C    0.61397   0.63861   0.14300   1.000
    C344    C    0.05540   0.13953   0.14807   1.000
    C345    C    0.04616   0.64310   0.14807   1.000
    C346    C    0.56095   0.13980   0.14733   1.000
    C347    C    0.55171   0.64341   0.14730   1.000
    C348    C    0.23188   0.14585   0.22356   1.000
    C349    C    0.22265   0.64943   0.22350   1.000
    C350    C    0.73730   0.14581   0.22310   1.000
    C351    C    0.72806   0.64941   0.22314   1.000
    C352    C    0.36959   0.10493   0.93138   1.000
    C353    C    0.36039   0.60853   0.93138   1.000
    C354    C    0.87547   0.10507   0.93136   1.000
    C355    C    0.86622   0.60867   0.93130   1.000
    C356    C    0.37045   0.10102   0.83120   1.000
    C357    C    0.36127   0.60462   0.83120   1.000
    C358    C    0.87620   0.10116   0.83115   1.000
    C359    C    0.86697   0.60477   0.83114   1.000
    C360    C    0.37917   0.15761   0.79000   1.000
    C361    C    0.37000   0.66122   0.79002   1.000
    C362    C    0.88509   0.15778   0.79004   1.000
    C363    C    0.87594   0.66139   0.79006   1.000
    C364    C    0.38599   0.21390   0.85013   1.000
    C365    C    0.37682   0.71751   0.85015   1.000
    C366    C    0.89221   0.21408   0.85027   1.000
    C367    C    0.88314   0.71769   0.85032   1.000
    C368    C    0.38392   0.21315   0.94871   1.000
    C369    C    0.37473   0.71675   0.94870   1.000
    C370    C    0.89024   0.21331   0.94888   1.000
    C371    C    0.88116   0.71692   0.94890   1.000
    C372    C    0.37922   0.15896   0.68371   1.000
    C373    C    0.37004   0.66258   0.68373   1.000
    C374    C    0.88496   0.15913   0.68371   1.000
    C375    C    0.87580   0.66275   0.68373   1.000
    C376    C    0.32153   0.14555   0.61872   1.000
    C377    C    0.31234   0.64917   0.61875   1.000
    C378    C    0.82718   0.14584   0.61896   1.000
    C379    C    0.81800   0.64955   0.61900   1.000
    C380    C    0.32054   0.14857   0.51975   1.000
    C381    C    0.31134   0.65219   0.51978   1.000
    C382    C    0.82603   0.14880   0.51995   1.000
    C383    C    0.81682   0.65251   0.52001   1.000
    C384    C    0.42976   0.17676   0.54600   1.000
    C385    C    0.42056   0.68038   0.54599   1.000
    C386    C    0.93526   0.17673   0.54570   1.000
    C387    C    0.92606   0.68027   0.54566   1.000
    C388    C    0.43554   0.17509   0.64685   1.000
    C389    C    0.42635   0.67870   0.64685   1.000
    C390    C    0.94121   0.17511   0.64658   1.000
    C391    C    0.93204   0.67865   0.64655   1.000
    C392    C    0.36182   0.03842   0.77190   1.000
    C393    C    0.35265   0.54203   0.77195   1.000
    C394    C    0.86728   0.03857   0.77179   1.000
    C395    C    0.85797   0.54217   0.77175   1.000
    C396    C    0.49950   0.18928   0.71130   1.000
    C397    C    0.49032   0.69289   0.71128   1.000
    C398    C    0.00000   0.18921   0.71082   1.000
    C399    C    0.99610   0.69267   0.71070   1.000
    C400    C    0.15924   0.36239   0.02580   1.000
    C401    C    0.15006   0.86599   0.02590   1.000
    C402    C    0.66543   0.36254   0.02598   1.000
    C403    C    0.65622   0.86613   0.02599   1.000
    C404    C    0.16195   0.35768   0.53142   1.000
    C405    C    0.15274   0.86129   0.53143   1.000
    C406    C    0.66736   0.35773   0.53135   1.000
    C407    C    0.65815   0.86134   0.53136   1.000
    C408    C    0.37596   0.15928   0.98900   1.000
    C409    C    0.36676   0.66287   0.98901   1.000
    C410    C    0.88213   0.15942   0.98909   1.000
    C411    C    0.87295   0.66302   0.98910   1.000
    C412    C    0.37403   0.16407   0.48360   1.000
    C413    C    0.36482   0.66768   0.48364   1.000
    C414    C    0.87944   0.16413   0.48356   1.000
    C415    C    0.87023   0.66774   0.48357   1.000
    C416    C    0.17761   0.45562   0.71475   1.000
    C417    C    0.16834   0.95921   0.71475   1.000
    C418    C    0.68293   0.45562   0.71471   1.000
    C419    C    0.67369   0.95921   0.71471   1.000
    C420    C    0.20069   0.47185   0.88040   1.000
    C421    C    0.19144   0.97543   0.88046   1.000
    C422    C    0.70574   0.47184   0.88045   1.000
    C423    C    0.69649   0.97542   0.88045   1.000
    C424    C    0.19160   0.28259   0.86640   1.000
    C425    C    0.18249   0.78619   0.86640   1.000
    C426    C    0.69756   0.28267   0.86650   1.000
    C427    C    0.68833   0.78626   0.86649   1.000
    C428    C    0.16241   0.26483   0.70150   1.000
    C429    C    0.15318   0.76842   0.70152   1.000
    C430    C    0.66716   0.26475   0.70100   1.000
    C431    C    0.65793   0.76834   0.70169   1.000
    C432    C    0.07370   0.35078   0.68890   1.000
    C433    C    0.06446   0.85435   0.68892   1.000
    C434    C    0.57885   0.35072   0.68873   1.000
    C435    C    0.56961   0.85431   0.68870   1.000
    C436    C    0.09708   0.36675   0.85456   1.000
    C437    C    0.08785   0.87033   0.85455   1.000
    C438    C    0.60327   0.36666   0.85431   1.000
    C439    C    0.59403   0.87024   0.85431   1.000
    C440    C    0.26594   0.36672   0.71045   1.000
    C441    C    0.25670   0.87031   0.71045   1.000
    C442    C    0.77102   0.36646   0.71040   1.000
    C443    C    0.76179   0.87004   0.71041   1.000
    C444    C    0.29027   0.38785   0.87571   1.000
    C445    C    0.28104   0.89147   0.87571   1.000
    C446    C    0.79599   0.38808   0.87550   1.000
    C447    C    0.78676   0.89167   0.87550   1.000
    C448    C    0.35849   0.06619   0.30028   1.000
    C449    C    0.34925   0.56978   0.30028   1.000
    C450    C    0.86385   0.06620   0.30024   1.000
    C451    C    0.85457   0.56979   0.30024   1.000
    C452    C    0.33569   0.04998   0.13454   1.000
    C453    C    0.32644   0.55357   0.13454   1.000
    C454    C    0.84074   0.04997   0.13453   1.000
    C455    C    0.83149   0.55356   0.13453   1.000
    C456    C    0.34385   0.23915   0.14850   1.000
    C457    C    0.33462   0.74274   0.14849   1.000
    C458    C    0.84969   0.23921   0.14851   1.000
    C459    C    0.84059   0.74282   0.14850   1.000
    C460    C    0.37425   0.25707   0.31330   1.000
    C461    C    0.36502   0.76065   0.31300   1.000
    C462    C    0.87900   0.25699   0.31347   1.000
    C463    C    0.86977   0.76058   0.31349   1.000
    C464    C    0.46257   0.17110   0.32626   1.000
    C465    C    0.45333   0.67469   0.32626   1.000
    C466    C    0.96772   0.17106   0.32607   1.000
    C467    C    0.95848   0.67463   0.32606   1.000
    C468    C    0.43815   0.15516   0.16068   1.000
    C469    C    0.42891   0.65875   0.16068   1.000
    C470    C    0.94433   0.15508   0.16040   1.000
    C471    C    0.93510   0.65865   0.16043   1.000
    C472    C    0.27039   0.15536   0.30458   1.000
    C473    C    0.26116   0.65895   0.30450   1.000
    C474    C    0.77548   0.15510   0.30454   1.000
    C475    C    0.76624   0.65869   0.30454   1.000
    C476    C    0.24543   0.13374   0.13949   1.000
    C477    C    0.23619   0.63732   0.13949   1.000
    C478    C    0.75114   0.13394   0.13928   1.000
    C479    C    0.74191   0.63756   0.13928   1.000
    O480    O    0.14851   0.28717   0.04132   1.000
    O481    O    0.13945   0.79078   0.04138   1.000
    O482    O    0.65507   0.28734   0.04157   1.000
    O483    O    0.64588   0.79094   0.04159   1.000
    O484    O    0.15513   0.33544   0.04594   1.000
    O485    O    0.16260   0.38957   0.05472   1.000
    O486    O    0.17738   0.37021   0.95907   1.000
    O487    O    0.14600   0.83905   0.04601   1.000
    O488    O    0.15339   0.89317   0.05475   1.000
    O489    O    0.16818   0.87380   0.95912   1.000
    O490    O    0.66144   0.33560   0.04612   1.000
    O491    O    0.66861   0.38971   0.05479   1.000
    O492    O    0.68369   0.37035   0.95922   1.000
    O493    O    0.65224   0.83919   0.04614   1.000
    O494    O    0.65941   0.89330   0.05479   1.000
    O495    O    0.67446   0.87393   0.95923   1.000
    O496    O    0.66568   0.94154   0.06545   1.000
    O497    O    0.67488   0.43795   0.06546   1.000
    O498    O    0.15988   0.94141   0.06549   1.000
    O499    O    0.16917   0.43782   0.06554   1.000
    O500    O    0.15004   0.30811   0.11537   1.000
    O501    O    0.14096   0.81172   0.11542   1.000
    O502    O    0.65641   0.30829   0.11555   1.000
    O503    O    0.64723   0.81188   0.11558   1.000
    O504    O    0.82079   0.43338   0.10186   1.000
    O505    O    0.81161   0.93698   0.10187   1.000
    O506    O    0.30580   0.93690   0.10203   1.000
    O507    O    0.31496   0.43330   0.10204   1.000
    O508    O    0.82650   0.34607   0.10598   1.000
    O509    O    0.81732   0.84966   0.10598   1.000
    O510    O    0.31144   0.84957   0.10614   1.000
    O511    O    0.32060   0.34596   0.10616   1.000
    O512    O    0.62074   0.63116   0.10858   1.000
    O513    O    0.62997   0.12753   0.10860   1.000
    O514    O    0.12440   0.12726   0.10931   1.000
    O515    O    0.11516   0.63084   0.10929   1.000
    O516    O    0.53343   0.63783   0.11474   1.000
    O517    O    0.54266   0.13421   0.11475   1.000
    O518    O    0.02788   0.63747   0.11550   1.000
    O519    O    0.03712   0.13390   0.11550   1.000
    O520    O    0.66216   0.92244   0.13369   1.000
    O521    O    0.15635   0.92230   0.13372   1.000
    O522    O    0.67136   0.41884   0.13370   1.000
    O523    O    0.16559   0.41870   0.13375   1.000
    O524    O    0.33758   0.09682   0.12853   1.000
    O525    O    0.29245   0.13870   0.13101   1.000
    O526    O    0.34166   0.19141   0.13551   1.000
    O527    O    0.38881   0.14941   0.14160   1.000
    O528    O    0.35772   0.15147   0.05576   1.000
    O529    O    0.32834   0.60041   0.12853   1.000
    O530    O    0.28321   0.64229   0.13101   1.000
    O531    O    0.33243   0.69499   0.13551   1.000
    O532    O    0.37957   0.65300   0.14160   1.000
    O533    O    0.34850   0.65506   0.05576   1.000
    O534    O    0.84331   0.09688   0.12859   1.000
    O535    O    0.79851   0.13886   0.13096   1.000
    O536    O    0.84779   0.19150   0.13558   1.000
    O537    O    0.89511   0.14944   0.14153   1.000
    O538    O    0.86400   0.15161   0.05587   1.000
    O539    O    0.83407   0.60047   0.12859   1.000
    O540    O    0.78928   0.64247   0.13096   1.000
    O541    O    0.83862   0.69510   0.13558   1.000
    O542    O    0.88587   0.65302   0.14154   1.000
    O543    O    0.85480   0.65520   0.05588   1.000
    O544    O    0.83809   0.54462   0.17652   1.000
    O545    O    0.84736   0.04103   0.17652   1.000
    O546    O    0.34218   0.04104   0.17654   1.000
    O547    O    0.33293   0.54462   0.17655   1.000
    O548    O    0.83222   0.39401   0.13741   1.000
    O549    O    0.83959   0.44665   0.17853   1.000
    O550    O    0.82305   0.89760   0.13741   1.000
    O551    O    0.83043   0.95025   0.17852   1.000
    O552    O    0.31727   0.89752   0.13755   1.000
    O553    O    0.32480   0.95019   0.17863   1.000
    O554    O    0.32644   0.39392   0.13756   1.000
    O555    O    0.33398   0.44659   0.17861   1.000
    O556    O    0.83731   0.85587   0.18273   1.000
    O557    O    0.84648   0.35227   0.18273   1.000
    O558    O    0.33163   0.85580   0.18281   1.000
    O559    O    0.34081   0.35220   0.18283   1.000
    O560    O    0.74422   0.13987   0.18119   1.000
    O561    O    0.73499   0.64348   0.18121   1.000
    O562    O    0.22942   0.64338   0.18149   1.000
    O563    O    0.23865   0.13979   0.18152   1.000
    O564    O    0.58284   0.64101   0.14515   1.000
    O565    O    0.63724   0.64595   0.18533   1.000
    O566    O    0.59208   0.13740   0.14517   1.000
    O567    O    0.64648   0.14234   0.18535   1.000
    O568    O    0.07730   0.64072   0.14589   1.000
    O569    O    0.13174   0.64578   0.18600   1.000
    O570    O    0.08654   0.13715   0.14591   1.000
    O571    O    0.14098   0.14221   0.18602   1.000
    O572    O    0.54325   0.65298   0.19185   1.000
    O573    O    0.55248   0.14938   0.19188   1.000
    O574    O    0.03768   0.65275   0.19260   1.000
    O575    O    0.04692   0.14919   0.19260   1.000
    O576    O    0.34147   0.76025   0.18919   1.000
    O577    O    0.84717   0.76031   0.18923   1.000
    O578    O    0.35070   0.25666   0.18920   1.000
    O579    O    0.85631   0.25670   0.18923   1.000
    O580    O    0.96321   0.15859   0.20097   1.000
    O581    O    0.95398   0.66216   0.20099   1.000
    O582    O    0.44801   0.66225   0.20099   1.000
    O583    O    0.45726   0.15866   0.20099   1.000
    O584    O    0.14581   0.28554   0.17968   1.000
    O585    O    0.15265   0.33587   0.19481   1.000
    O586    O    0.13677   0.78916   0.17975   1.000
    O587    O    0.14354   0.83949   0.19481   1.000
    O588    O    0.65222   0.28574   0.17989   1.000
    O589    O    0.65878   0.33606   0.19491   1.000
    O590    O    0.64305   0.78935   0.17992   1.000
    O591    O    0.64961   0.83966   0.19493   1.000
    O592    O    0.65738   0.89610   0.20438   1.000
    O593    O    0.66605   0.95570   0.21341   1.000
    O594    O    0.66655   0.39250   0.20438   1.000
    O595    O    0.67523   0.45209   0.21341   1.000
    O596    O    0.15154   0.89594   0.20437   1.000
    O597    O    0.16044   0.95555   0.21352   1.000
    O598    O    0.16073   0.39234   0.20439   1.000
    O599    O    0.16971   0.45195   0.21354   1.000
    O600    O    0.67900   0.00197   0.21929   1.000
    O601    O    0.67894   0.50195   0.21930   1.000
    O602    O    0.17365   0.00185   0.21948   1.000
    O603    O    0.17388   0.50185   0.21954   1.000
    O604    O    0.84698   0.00186   0.21979   1.000
    O605    O    0.85892   0.04915   0.25938   1.000
    O606    O    0.84691   0.50184   0.21979   1.000
    O607    O    0.84963   0.55273   0.25938   1.000
    O608    O    0.34158   0.00183   0.21984   1.000
    O609    O    0.35359   0.04914   0.25941   1.000
    O610    O    0.34154   0.50183   0.21983   1.000
    O611    O    0.34434   0.55273   0.25942   1.000
    O612    O    0.85199   0.96116   0.26502   1.000
    O613    O    0.86114   0.45756   0.26503   1.000
    O614    O    0.35573   0.45753   0.26504   1.000
    O615    O    0.34653   0.96112   0.26506   1.000
    O616    O    0.70352   0.14775   0.22539   1.000
    O617    O    0.75639   0.15046   0.26382   1.000
    O618    O    0.69429   0.65135   0.22540   1.000
    O619    O    0.74715   0.65405   0.26384   1.000
    O620    O    0.18885   0.65133   0.22590   1.000
    O621    O    0.24190   0.65419   0.26400   1.000
    O622    O    0.19809   0.14775   0.22593   1.000
    O623    O    0.25114   0.15060   0.26407   1.000
    O624    O    0.14716   0.86696   0.27809   1.000
    O625    O    0.15632   0.36335   0.27809   1.000
    O626    O    0.66217   0.36352   0.27812   1.000
    O627    O    0.65299   0.86713   0.27814   1.000
    O628    O    0.86075   0.30800   0.22828   1.000
    O629    O    0.86828   0.36323   0.26910   1.000
    O630    O    0.85158   0.81160   0.22829   1.000
    O631    O    0.85913   0.86683   0.26911   1.000
    O632    O    0.34608   0.81156   0.22826   1.000
    O633    O    0.35363   0.86679   0.26913   1.000
    O634    O    0.35529   0.30797   0.22828   1.000
    O635    O    0.36282   0.36319   0.26914   1.000
    O636    O    0.65207   0.66316   0.27213   1.000
    O637    O    0.66131   0.15958   0.27214   1.000
    O638    O    0.14660   0.66314   0.27274   1.000
    O639    O    0.15584   0.15959   0.27273   1.000
    O640    O    0.35667   0.76921   0.27144   1.000
    O641    O    0.36590   0.26562   0.27160   1.000
    O642    O    0.87096   0.26559   0.27171   1.000
    O643    O    0.86176   0.76918   0.27172   1.000
    O644    O    0.50095   0.66415   0.23886   1.000
    O645    O    0.55805   0.66998   0.27870   1.000
    O646    O    0.51019   0.16056   0.23888   1.000
    O647    O    0.56730   0.16640   0.27873   1.000
    O648    O    0.01026   0.16047   0.23933   1.000
    O649    O    0.06174   0.16635   0.27937   1.000
    O650    O    0.00102   0.66403   0.23933   1.000
    O651    O    0.05249   0.66989   0.27936   1.000
    O652    O    0.54110   0.31529   0.27224   1.000
    O653    O    0.53192   0.81889   0.27224   1.000
    O654    O    0.46022   0.67022   0.28378   1.000
    O655    O    0.46946   0.16663   0.28378   1.000
    O656    O    0.02607   0.81887   0.27278   1.000
    O657    O    0.03520   0.31542   0.27283   1.000
    O658    O    0.97491   0.16658   0.28381   1.000
    O659    O    0.96567   0.67015   0.28380   1.000
    O660    O    0.65191   0.98771   0.26538   1.000
    O661    O    0.69322   0.99252   0.26814   1.000
    O662    O    0.66108   0.48411   0.26537   1.000
    O663    O    0.70239   0.48890   0.26802   1.000
    O664    O    0.14644   0.98766   0.26552   1.000
    O665    O    0.18774   0.99225   0.26833   1.000
    O666    O    0.15568   0.48412   0.26540   1.000
    O667    O    0.19700   0.48856   0.26852   1.000
    O668    O    0.52671   0.85727   0.28893   1.000
    O669    O    0.53588   0.35367   0.28898   1.000
    O670    O    0.02101   0.85732   0.28931   1.000
    O671    O    0.03018   0.35388   0.28943   1.000
    O672    O    0.86852   0.11473   0.31710   1.000
    O673    O    0.85926   0.61831   0.31710   1.000
    O674    O    0.35421   0.61835   0.31718   1.000
    O675    O    0.36344   0.11476   0.31718   1.000
    O676    O    0.51414   0.82685   0.32355   1.000
    O677    O    0.56466   0.84324   0.33592   1.000
    O678    O    0.52332   0.32322   0.32356   1.000
    O679    O    0.57385   0.33962   0.33592   1.000
    O680    O    0.01347   0.82702   0.32414   1.000
    O681    O    0.05895   0.84325   0.33629   1.000
    O682    O    0.01805   0.32357   0.32423   1.000
    O683    O    0.06812   0.33975   0.33634   1.000
    O684    O    0.31016   0.66293   0.31929   1.000
    O685    O    0.81509   0.66276   0.31925   1.000
    O686    O    0.82433   0.15917   0.31925   1.000
    O687    O    0.31939   0.15935   0.31933   1.000
    O688    O    0.86642   0.91948   0.31029   1.000
    O689    O    0.87143   0.96757   0.34170   1.000
    O690    O    0.87556   0.41587   0.31029   1.000
    O691    O    0.88056   0.46396   0.34170   1.000
    O692    O    0.36100   0.91944   0.31030   1.000
    O693    O    0.36608   0.96754   0.34170   1.000
    O694    O    0.37020   0.41585   0.31031   1.000
    O695    O    0.37528   0.46395   0.34170   1.000
    O696    O    0.88730   0.37626   0.34530   1.000
    O697    O    0.87816   0.87987   0.34550   1.000
    O698    O    0.37279   0.87984   0.34547   1.000
    O699    O    0.38200   0.37625   0.34548   1.000
    O700    O    0.36209   0.71379   0.32354   1.000
    O701    O    0.37132   0.21020   0.32370   1.000
    O702    O    0.87609   0.21012   0.32371   1.000
    O703    O    0.86686   0.71371   0.32372   1.000
    O704    O    0.61248   0.67521   0.31880   1.000
    O705    O    0.66192   0.67919   0.34909   1.000
    O706    O    0.62172   0.17164   0.31880   1.000
    O707    O    0.67116   0.17563   0.34911   1.000
    O708    O    0.11621   0.17168   0.31938   1.000
    O709    O    0.16568   0.17577   0.34966   1.000
    O710    O    0.10696   0.67522   0.31938   1.000
    O711    O    0.15643   0.67930   0.34967   1.000
    O712    O    0.57457   0.68490   0.35540   1.000
    O713    O    0.58382   0.18134   0.35540   1.000
    O714    O    0.06907   0.68496   0.35580   1.000
    O715    O    0.07832   0.18143   0.35600   1.000
    O716    O    0.91121   0.67074   0.33000   1.000
    O717    O    0.92045   0.16715   0.33001   1.000
    O718    O    0.40625   0.67080   0.33017   1.000
    O719    O    0.41548   0.16721   0.33017   1.000
    O720    O    0.63399   0.35478   0.34970   1.000
    O721    O    0.69100   0.36954   0.36375   1.000
    O722    O    0.12827   0.35471   0.34984   1.000
    O723    O    0.18529   0.36927   0.36361   1.000
    O724    O    0.62481   0.85839   0.34971   1.000
    O725    O    0.68181   0.87316   0.36378   1.000
    O726    O    0.11910   0.85829   0.34984   1.000
    O727    O    0.17611   0.87293   0.36366   1.000
    O728    O    0.87631   0.16369   0.40875   1.000
    O729    O    0.86708   0.66729   0.40876   1.000
    O730    O    0.37121   0.16370   0.40884   1.000
    O731    O    0.36199   0.66730   0.40887   1.000
    O732    O    0.60873   0.34588   0.41857   1.000
    O733    O    0.59954   0.84949   0.41857   1.000
    O734    O    0.09395   0.84949   0.41885   1.000
    O735    O    0.10313   0.34595   0.41887   1.000
    O736    O    0.23621   0.38180   0.38236   1.000
    O737    O    0.22703   0.88555   0.38244   1.000
    O738    O    0.74189   0.38227   0.38275   1.000
    O739    O    0.73271   0.88589   0.38278   1.000
    O740    O    0.21477   0.37440   0.44548   1.000
    O741    O    0.20558   0.87810   0.44554   1.000
    O742    O    0.72035   0.37474   0.44572   1.000
    O743    O    0.71115   0.87836   0.44575   1.000
    O744    O    0.79491   0.64775   0.49301   1.000
    O745    O    0.29868   0.14374   0.49310   1.000
    O746    O    0.28947   0.64736   0.49313   1.000
    O747    O    0.80413   0.14401   0.49338   1.000
    O748    O    0.58155   0.84276   0.48558   1.000
    O749    O    0.63029   0.85500   0.50018   1.000
    O750    O    0.59075   0.33915   0.48560   1.000
    O751    O    0.63949   0.35139   0.50018   1.000
    O752    O    0.07609   0.84285   0.48600   1.000
    O753    O    0.12483   0.85498   0.50036   1.000
    O754    O    0.08529   0.33935   0.48605   1.000
    O755    O    0.13404   0.35141   0.50037   1.000
    O756    O    0.85274   0.15647   0.50175   1.000
    O757    O    0.90735   0.17043   0.51463   1.000
    O758    O    0.84352   0.66012   0.50179   1.000
    O759    O    0.89814   0.67400   0.51462   1.000
    O760    O    0.34728   0.15632   0.50167   1.000
    O761    O    0.40189   0.17042   0.51480   1.000
    O762    O    0.33808   0.65994   0.50171   1.000
    O763    O    0.39269   0.67403   0.51482   1.000
    O764    O    0.18866   0.36530   0.51321   1.000
    O765    O    0.23727   0.37768   0.52155   1.000
    O766    O    0.17945   0.86895   0.51323   1.000
    O767    O    0.22805   0.88141   0.52162   1.000
    O768    O    0.69410   0.36548   0.51328   1.000
    O769    O    0.74271   0.37805   0.52186   1.000
    O770    O    0.68490   0.86910   0.51330   1.000
    O771    O    0.73351   0.88167   0.52190   1.000
    O772    O    0.94690   0.68605   0.52893   1.000
    O773    O    0.95610   0.18255   0.52899   1.000
    O774    O    0.44143   0.68627   0.52939   1.000
    O775    O    0.45063   0.18265   0.52941   1.000
    O776    O    0.32103   0.14706   0.56924   1.000
    O777    O    0.31184   0.65068   0.56927   1.000
    O778    O    0.82660   0.14732   0.56945   1.000
    O779    O    0.81741   0.65103   0.56951   1.000
    O780    O    0.67019   0.35811   0.60612   1.000
    O781    O    0.66097   0.86171   0.60613   1.000
    O782    O    0.16510   0.35812   0.60623   1.000
    O783    O    0.15587   0.86172   0.60624   1.000
    O784    O    0.92905   0.67946   0.59610   1.000
    O785    O    0.93824   0.17592   0.59614   1.000
    O786    O    0.42345   0.67954   0.59642   1.000
    O787    O    0.43265   0.17593   0.59642   1.000
    O788    O    0.29948   0.13953   0.63221   1.000
    O789    O    0.35037   0.15226   0.65121   1.000
    O790    O    0.29029   0.64315   0.63223   1.000
    O791    O    0.34119   0.65587   0.65124   1.000
    O792    O    0.80516   0.13988   0.63255   1.000
    O793    O    0.85607   0.15249   0.65133   1.000
    O794    O    0.79598   0.64363   0.63260   1.000
    O795    O    0.84690   0.65615   0.65137   1.000
    O796    O    0.96311   0.34045   0.65898   1.000
    O797    O    0.95386   0.84398   0.65899   1.000
    O798    O    0.44836   0.84407   0.65949   1.000
    O799    O    0.45761   0.34051   0.65958   1.000
    O800    O    0.87575   0.34611   0.66532   1.000
    O801    O    0.86650   0.84964   0.66533   1.000
    O802    O    0.37026   0.34622   0.66587   1.000
    O803    O    0.36102   0.84979   0.66588   1.000
    O804    O    0.14489   0.64914   0.66947   1.000
    O805    O    0.15403   0.14554   0.66948   1.000
    O806    O    0.65018   0.64916   0.66951   1.000
    O807    O    0.65939   0.14557   0.66952   1.000
    O808    O    0.15163   0.56145   0.67328   1.000
    O809    O    0.16077   0.05785   0.67329   1.000
    O810    O    0.65690   0.56146   0.67328   1.000
    O811    O    0.66610   0.05786   0.67329   1.000
    O812    O    0.90392   0.67070   0.66514   1.000
    O813    O    0.96407   0.68566   0.67862   1.000
    O814    O    0.91309   0.16712   0.66515   1.000
    O815    O    0.97061   0.18216   0.67870   1.000
    O816    O    0.39819   0.67064   0.66529   1.000
    O817    O    0.45834   0.68580   0.67907   1.000
    O818    O    0.40738   0.16703   0.66528   1.000
    O819    O    0.46752   0.18218   0.67908   1.000
    O820    O    0.00891   0.70183   0.69073   1.000
    O821    O    0.01545   0.19838   0.69085   1.000
    O822    O    0.50886   0.70221   0.69142   1.000
    O823    O    0.51805   0.19857   0.69144   1.000
    O824    O    0.61670   0.85819   0.68480   1.000
    O825    O    0.66086   0.81521   0.69129   1.000
    O826    O    0.71279   0.86606   0.69566   1.000
    O827    O    0.66874   0.91065   0.69780   1.000
    O828    O    0.62593   0.35461   0.68481   1.000
    O829    O    0.67009   0.31162   0.69095   1.000
    O830    O    0.72202   0.36248   0.69565   1.000
    O831    O    0.67797   0.40706   0.69780   1.000
    O832    O    0.12097   0.35467   0.68497   1.000
    O833    O    0.16532   0.31170   0.69127   1.000
    O834    O    0.21709   0.36264   0.69575   1.000
    O835    O    0.17293   0.40710   0.69790   1.000
    O836    O    0.11173   0.85825   0.68498   1.000
    O837    O    0.15609   0.81529   0.69128   1.000
    O838    O    0.20785   0.86623   0.69575   1.000
    O839    O    0.16367   0.91068   0.69790   1.000
    O840    O    0.37919   0.15829   0.73686   1.000
    O841    O    0.88503   0.15846   0.73687   1.000
    O842    O    0.37002   0.66190   0.73687   1.000
    O843    O    0.87587   0.66207   0.73690   1.000
    O844    O    0.56272   0.85878   0.73119   1.000
    O845    O    0.57196   0.35519   0.73120   1.000
    O846    O    0.06651   0.35526   0.73117   1.000
    O847    O    0.05727   0.85883   0.73116   1.000
    O848    O    0.92522   0.35019   0.69560   1.000
    O849    O    0.97819   0.35552   0.73559   1.000
    O850    O    0.91597   0.85373   0.69561   1.000
    O851    O    0.97044   0.85907   0.73562   1.000
    O852    O    0.41970   0.35020   0.69619   1.000
    O853    O    0.47413   0.35543   0.73626   1.000
    O854    O    0.41046   0.85377   0.69619   1.000
    O855    O    0.46489   0.85902   0.73626   1.000
    O856    O    0.88558   0.36227   0.74225   1.000
    O857    O    0.87634   0.86582   0.74226   1.000
    O858    O    0.37087   0.86584   0.74286   1.000
    O859    O    0.38011   0.36225   0.74286   1.000
    O860    O    0.67551   0.25620   0.74305   1.000
    O861    O    0.17042   0.25623   0.74326   1.000
    O862    O    0.16122   0.75982   0.74328   1.000
    O863    O    0.66628   0.75979   0.74339   1.000
    O864    O    0.66198   0.60956   0.70468   1.000
    O865    O    0.66936   0.66221   0.74585   1.000
    O866    O    0.15663   0.60954   0.70469   1.000
    O867    O    0.16391   0.66218   0.74587   1.000
    O868    O    0.67118   0.10596   0.70469   1.000
    O869    O    0.67855   0.15862   0.74586   1.000
    O870    O    0.16577   0.10593   0.70470   1.000
    O871    O    0.17307   0.15858   0.74587   1.000
    O872    O    0.67646   0.56788   0.74991   1.000
    O873    O    0.68565   0.06428   0.74993   1.000
    O874    O    0.17105   0.56785   0.74996   1.000
    O875    O    0.18020   0.06425   0.74998   1.000
    O876    O    0.79028   0.37122   0.75091   1.000
    O877    O    0.78104   0.87480   0.75092   1.000
    O878    O    0.27579   0.87495   0.75114   1.000
    O879    O    0.28503   0.37136   0.75114   1.000
    O880    O    0.99805   0.67153   0.72553   1.000
    O881    O    0.99699   0.70999   0.74213   1.000
    O882    O    0.00000   0.16809   0.72567   1.000
    O883    O    0.00000   0.20654   0.74221   1.000
    O884    O    0.49631   0.67176   0.72600   1.000
    O885    O    0.49108   0.71013   0.74274   1.000
    O886    O    0.50548   0.16815   0.72606   1.000
    O887    O    0.50027   0.20653   0.74275   1.000
    O888    O    0.67859   0.97626   0.75558   1.000
    O889    O    0.68785   0.47268   0.75557   1.000
    O890    O    0.18255   0.47268   0.75561   1.000
    O891    O    0.17327   0.97626   0.75561   1.000
    O892    O    0.83518   0.53686   0.74646   1.000
    O893    O    0.84443   0.03316   0.74665   1.000
    O894    O    0.32980   0.53651   0.74682   1.000
    O895    O    0.33896   0.03290   0.74680   1.000
    O896    O    0.88574   0.03776   0.74947   1.000
    O897    O    0.38027   0.03771   0.74957   1.000
    O898    O    0.37111   0.54131   0.74961   1.000
    O899    O    0.87650   0.54130   0.74959   1.000
    O900    O    0.85829   0.52356   0.79543   1.000
    O901    O    0.86247   0.57347   0.80144   1.000
    O902    O    0.85853   0.01928   0.79549   1.000
    O903    O    0.87174   0.06986   0.80147   1.000
    O904    O    0.35319   0.01921   0.79567   1.000
    O905    O    0.36614   0.06972   0.80155   1.000
    O906    O    0.35325   0.52347   0.79568   1.000
    O907    O    0.35696   0.57332   0.80157   1.000
    O908    O    0.02192   0.86494   0.77563   1.000
    O909    O    0.06897   0.86682   0.81397   1.000
    O910    O    0.02966   0.36138   0.77562   1.000
    O911    O    0.07820   0.36325   0.81400   1.000
    O912    O    0.52199   0.86485   0.77611   1.000
    O913    O    0.57493   0.86674   0.81400   1.000
    O914    O    0.53123   0.36126   0.77611   1.000
    O915    O    0.58417   0.36316   0.81400   1.000
    O916    O    0.99301   0.37266   0.82236   1.000
    O917    O    0.98526   0.87622   0.82238   1.000
    O918    O    0.47970   0.87603   0.82310   1.000
    O919    O    0.48893   0.37243   0.82311   1.000
    O920    O    0.18061   0.21381   0.78670   1.000
    O921    O    0.18502   0.26510   0.82571   1.000
    O922    O    0.17143   0.71741   0.78671   1.000
    O923    O    0.17587   0.76871   0.82572   1.000
    O924    O    0.67689   0.71744   0.78671   1.000
    O925    O    0.68148   0.76875   0.82579   1.000
    O926    O    0.68610   0.21385   0.78673   1.000
    O927    O    0.69071   0.26516   0.82580   1.000
    O928    O    0.83409   0.87766   0.78905   1.000
    O929    O    0.89120   0.88320   0.82896   1.000
    O930    O    0.84333   0.37408   0.78905   1.000
    O931    O    0.90044   0.37963   0.82896   1.000
    O932    O    0.32866   0.87766   0.78958   1.000
    O933    O    0.38570   0.88307   0.82964   1.000
    O934    O    0.33789   0.37406   0.78958   1.000
    O935    O    0.39494   0.37946   0.82965   1.000
    O936    O    0.69137   0.67320   0.83217   1.000
    O937    O    0.70055   0.16961   0.83218   1.000
    O938    O    0.18570   0.67314   0.83226   1.000
    O939    O    0.19488   0.16954   0.83226   1.000
    O940    O    0.37481   0.12931   0.81060   1.000
    O941    O    0.38258   0.18576   0.82007   1.000
    O942    O    0.36563   0.63292   0.81061   1.000
    O943    O    0.37341   0.68936   0.82008   1.000
    O944    O    0.88065   0.12947   0.81060   1.000
    O945    O    0.88865   0.18593   0.82015   1.000
    O946    O    0.87145   0.63308   0.81060   1.000
    O947    O    0.87954   0.68954   0.82019   1.000
    O948    O    0.80276   0.38203   0.83346   1.000
    O949    O    0.79353   0.88562   0.83347   1.000
    O950    O    0.28796   0.88554   0.83377   1.000
    O951    O    0.29719   0.38192   0.83377   1.000
    O952    O    0.69064   0.52358   0.79514   1.000
    O953    O    0.69820   0.57882   0.83634   1.000
    O954    O    0.69060   0.02357   0.79515   1.000
    O955    O    0.70738   0.07522   0.83637   1.000
    O956    O    0.18527   0.52356   0.79520   1.000
    O957    O    0.19259   0.57876   0.83646   1.000
    O958    O    0.18521   0.02355   0.79520   1.000
    O959    O    0.20176   0.07516   0.83646   1.000
    O960    O    0.69925   0.48079   0.83844   1.000
    O961    O    0.69000   0.98437   0.83845   1.000
    O962    O    0.18482   0.98437   0.83847   1.000
    O963    O    0.19409   0.48079   0.83844   1.000
    O964    O    0.38914   0.23607   0.83508   1.000
    O965    O    0.37997   0.73967   0.83510   1.000
    O966    O    0.89542   0.23626   0.83525   1.000
    O967    O    0.88639   0.73987   0.83531   1.000
    O968    O    0.86659   0.60672   0.88122   1.000
    O969    O    0.87583   0.10311   0.88126   1.000
    O970    O    0.36083   0.60657   0.88129   1.000
    O971    O    0.37002   0.10298   0.88129   1.000
    O972    O    0.38496   0.21353   0.89942   1.000
    O973    O    0.37577   0.71713   0.89942   1.000
    O974    O    0.89123   0.21370   0.89957   1.000
    O975    O    0.88215   0.71731   0.89961   1.000
    O976    O    0.65261   0.37241   0.87339   1.000
    O977    O    0.64337   0.87599   0.87339   1.000
    O978    O    0.13707   0.87597   0.87345   1.000
    O979    O    0.14631   0.37239   0.87345   1.000
    O980    O    0.18439   0.83390   0.87937   1.000
    O981    O    0.19356   0.33031   0.87937   1.000
    O982    O    0.69052   0.83400   0.87948   1.000
    O983    O    0.69975   0.33041   0.87949   1.000
    O984    O    0.94565   0.88827   0.86908   1.000
    O985    O    0.98839   0.89152   0.89948   1.000
    O986    O    0.95488   0.38469   0.86908   1.000
    O987    O    0.99301   0.38794   0.89949   1.000
    O988    O    0.44010   0.88802   0.86981   1.000
    O989    O    0.48952   0.89120   0.90023   1.000
    O990    O    0.44934   0.38441   0.86982   1.000
    O991    O    0.49876   0.38759   0.90024   1.000
    O992    O    0.91702   0.39457   0.90568   1.000
    O993    O    0.90778   0.89815   0.90568   1.000
    O994    O    0.40221   0.89788   0.90639   1.000
    O995    O    0.41144   0.39426   0.90640   1.000
    O996    O    0.74897   0.38312   0.88399   1.000
    O997    O    0.73973   0.88670   0.88399   1.000
    O998    O    0.24290   0.38294   0.88402   1.000
    O999    O    0.23367   0.88654   0.88402   1.000
    O1000   O    0.70575   0.63149   0.87742   1.000
    O1001   O    0.71159   0.67945   0.90883   1.000
    O1002   O    0.71491   0.12788   0.87745   1.000
    O1003   O    0.72075   0.17584   0.90885   1.000
    O1004   O    0.20914   0.12781   0.87757   1.000
    O1005   O    0.21486   0.17575   0.90901   1.000
    O1006   O    0.19996   0.63140   0.87757   1.000
    O1007   O    0.20568   0.67934   0.90901   1.000
    O1008   O    0.71722   0.59211   0.91294   1.000
    O1009   O    0.72639   0.08851   0.91296   1.000
    O1010   O    0.21139   0.59202   0.91312   1.000
    O1011   O    0.22058   0.08843   0.91312   1.000
    O1012   O    0.19811   0.42494   0.88637   1.000
    O1013   O    0.70385   0.42500   0.88646   1.000
    O1014   O    0.69460   0.92858   0.88646   1.000
    O1015   O    0.18887   0.92852   0.88640   1.000
    O1016   O    0.86301   0.58759   0.94943   1.000
    O1017   O    0.86958   0.63584   0.96020   1.000
    O1018   O    0.87230   0.08400   0.94948   1.000
    O1019   O    0.87880   0.13224   0.96022   1.000
    O1020   O    0.36651   0.08387   0.94953   1.000
    O1021   O    0.37278   0.13211   0.96019   1.000
    O1022   O    0.35730   0.58747   0.94949   1.000
    O1023   O    0.36357   0.63570   0.96020   1.000
    O1024   O    0.37074   0.68981   0.96885   1.000
    O1025   O    0.37712   0.73807   0.97342   1.000
    O1026   O    0.37994   0.18622   0.96886   1.000
    O1027   O    0.38631   0.23447   0.97341   1.000
    O1028   O    0.88619   0.18636   0.96898   1.000
    O1029   O    0.89273   0.23463   0.97362   1.000
    O1030   O    0.87705   0.68997   0.96900   1.000
    O1031   O    0.88368   0.73824   0.97367   1.000
    O1032   O    0.18188   0.36830   0.78669   1.000
    O1033   O    0.17265   0.87189   0.78669   1.000
    O1034   O    0.68748   0.36832   0.78668   1.000
    O1035   O    0.67825   0.87191   0.78668   1.000
    O1036   O    0.35393   0.15350   0.22831   1.000
    O1037   O    0.34470   0.65708   0.22831   1.000
    O1038   O    0.85953   0.15352   0.22830   1.000
    O1039   O    0.85030   0.65711   0.22830   1.000
loop_
    _geom_bond_atom_site_label_1
    _geom_bond_atom_site_label_2
    _geom_bond_distance
    _geom_bond_site_symmetry_2
    _ccdc_geom_bond_type
    C56    O480      0.54435      .   S
    C256   O480      0.54435      .   S
    C57    O481      0.54435      .   S
    C257   O481      0.54435      .   S
    C58    O482      0.54435      .   S
    C258   O482      0.54435      .   S
    C59    O483      0.54437      .   S
    C259   O483      0.54437      .   S
    C400   O484      0.67474      .   S
    C256   O484      0.67474      .   S
    C400   O485      0.67419      .   S
    C240   O485      0.67419      .   S
    C400   O486      1.08625  1_554   S
    C0     O486      1.08625      .   S
    C401   O487      0.67443      .   S
    C257   O487      0.67443      .   S
    C401   O488      0.67379      .   S
    C241   O488      0.67379      .   S
    C401   O489      1.08664  1_554   S
    C1     O489      1.08664      .   S
    C402   O490      0.67446      .   S
    C258   O490      0.67446      .   S
    C402   O491      0.67394      .   S
    C242   O491      0.67394      .   S
    C402   O492      1.08774  1_554   S
    C2     O492      1.08774      .   S
    C403   O493      0.67444      .   S
    C259   O493      0.67444      .   S
    C403   O494      0.67389      .   S
    C243   O494      0.67389      .   S
    C403   O495      1.08764  1_554   S
    C3     O495      1.08764      .   S
    C51    O496      0.54537      .   S
    C243   O496      0.54537      .   S
    C50    O497      0.54537      .   S
    C242   O497      0.54537      .   S
    C49    O498      0.54528      .   S
    C241   O498      0.54528      .   S
    C48    O499      0.54535      .   S
    C240   O499      0.54535      .   S
    C256   O500      0.69345      .   S
    C252   O500      0.69345      .   S
    C257   O501      0.69341      .   S
    C253   O501      0.69341      .   S
    C258   O502      0.69338      .   S
    C254   O502      0.69338      .   S
    C259   O503      0.69341      .   S
    C255   O503      0.69341      .   S
    C110   O504      0.54440      .   S
    C314   O504      0.54440      .   S
    C111   O505      0.54438      .   S
    C315   O505      0.54438      .   S
    C109   O506      0.54445      .   S
    C313   O506      0.54445      .   S
    C108   O507      0.54441      .   S
    C312   O507      0.54441      .   S
    C106   O508      0.54441      .   S
    C310   O508      0.54441      .   S
    C107   O509      0.54438      .   S
    C311   O509      0.54438      .   S
    C105   O510      0.54443      .   S
    C309   O510      0.54443      .   S
    C104   O511      0.54446      .   S
    C308   O511      0.54446      .   S
    C123   O512      0.54462      .   S
    C343   O512      0.54462      .   S
    C122   O513      0.54465      .   S
    C342   O513      0.54465      .   S
    C120   O514      0.54467      .   S
    C340   O514      0.54467      .   S
    C121   O515      0.54441      .   S
    C341   O515      0.54441      .   S
    C127   O516      0.54449      .   S
    C347   O516      0.54449      .   S
    C126   O517      0.54461      .   S
    C346   O517      0.54461      .   S
    C125   O518      0.54459      .   S
    C345   O518      0.54459      .   S
    C124   O519      0.54456      .   S
    C344   O519      0.54456      .   S
    C243   O520      0.69895      .   S
    C247   O520      0.69895      .   S
    C241   O521      0.69913      .   S
    C245   O521      0.69913      .   S
    C242   O522      0.69892      .   S
    C246   O522      0.69892      .   S
    C240   O523      0.69894      .   S
    C244   O523      0.69894      .   S
    C8     O524      1.03074      .   S
    C452   O524      1.03074      .   S
    C8     O525      1.04144      .   S
    C476   O525      1.04144      .   S
    C8     O526      1.03600      .   S
    C456   O526      1.03600      .   S
    C8     O527      1.05087      .   S
    C468   O527      1.05087      .   S
    C8     O528      1.08767      .   S
    C408   O528      1.08767  1_556   S
    C9     O529      1.03074      .   S
    C453   O529      1.03074      .   S
    C9     O530      1.04144      .   S
    C477   O530      1.04144      .   S
    C9     O531      1.03599      .   S
    C457   O531      1.03599      .   S
    C9     O532      1.05083      .   S
    C469   O532      1.05083      .   S
    C9     O533      1.08777      .   S
    C409   O533      1.08777  1_556   S
    C10    O534      1.03045      .   S
    C454   O534      1.03045      .   S
    C10    O535      1.04830      .   S
    C478   O535      1.04830      .   S
    C10    O536      1.03621      .   S
    C458   O536      1.03621      .   S
    C10    O537      1.04840      .   S
    C470   O537      1.04840      .   S
    C10    O538      1.08666      .   S
    C410   O538      1.08666  1_556   S
    C11    O539      1.03045      .   S
    C455   O539      1.03045      .   S
    C11    O540      1.04827      .   S
    C479   O540      1.04827      .   S
    C11    O541      1.03620      .   S
    C459   O541      1.03620      .   S
    C11    O542      1.04838      .   S
    C471   O542      1.04838      .   S
    C11    O543      1.08686      .   S
    C411   O543      1.08686  1_556   S
    C455   O544      0.63774      .   S
    C291   O544      0.63774      .   S
    C454   O545      0.63776      .   S
    C290   O545      0.63776      .   S
    C452   O546      0.63760      .   S
    C288   O546      0.63760      .   S
    C453   O547      0.63765      .   S
    C289   O547      0.63765      .   S
    C314   O548      0.69620      .   S
    C310   O548      0.69620      .   S
    C314   O549      0.70148      .   S
    C294   O549      0.70148      .   S
    C315   O550      0.69620      .   S
    C311   O550      0.69620      .   S
    C315   O551      0.70148      .   S
    C295   O551      0.70148      .   S
    C313   O552      0.69617      .   S
    C309   O552      0.69617      .   S
    C313   O553      0.70144      .   S
    C293   O553      0.70144      .   S
    C312   O554      0.69618      .   S
    C308   O554      0.69618      .   S
    C312   O555      0.70123      .   S
    C292   O555      0.70123      .   S
    C311   O556      0.70173      .   S
    C307   O556      0.70173      .   S
    C310   O557      0.70173      .   S
    C306   O557      0.70173      .   S
    C309   O558      0.70173      .   S
    C305   O558      0.70173      .   S
    C308   O559      0.70172      .   S
    C304   O559      0.70172      .   S
    C478   O560      0.63563      .   S
    C350   O560      0.63563      .   S
    C479   O561      0.63590      .   S
    C351   O561      0.63590      .   S
    C477   O562      0.63590      .   S
    C349   O562      0.63590      .   S
    C476   O563      0.63630      .   S
    C348   O563      0.63630      .   S
    C343   O564      0.69630      .   S
    C347   O564      0.69630      .   S
    C343   O565      0.70170      .   S
    C339   O565      0.70170      .   S
    C342   O566      0.69632      .   S
    C346   O566      0.69632      .   S
    C342   O567      0.70168      .   S
    C338   O567      0.70168      .   S
    C341   O568      0.69638      .   S
    C345   O568      0.69638      .   S
    C341   O569      0.70200      .   S
    C337   O569      0.70200      .   S
    C340   O570      0.69633      .   S
    C344   O570      0.69633      .   S
    C340   O571      0.70183      .   S
    C336   O571      0.70183      .   S
    C347   O572      0.70158      .   S
    C327   O572      0.70158      .   S
    C346   O573      0.70169      .   S
    C326   O573      0.70169      .   S
    C345   O574      0.70189      .   S
    C325   O574      0.70189      .   S
    C344   O575      0.70192      .   S
    C324   O575      0.70192      .   S
    C457   O576      0.63737      .   S
    C317   O576      0.63737      .   S
    C459   O577      0.63747      .   S
    C319   O577      0.63747      .   S
    C456   O578      0.63735      .   S
    C316   O578      0.63735      .   S
    C458   O579      0.63740      .   S
    C318   O579      0.63740      .   S
    C470   O580      0.63534      .   S
    C322   O580      0.63534      .   S
    C471   O581      0.63516      .   S
    C323   O581      0.63516      .   S
    C469   O582      0.63492      .   S
    C321   O582      0.63492      .   S
    C468   O583      0.63492      .   S
    C320   O583      0.63492      .   S
    C252   O584      0.54416      .   S
    C52    O584      0.54416      .   S
    C252   O585      0.69920      .   S
    C248   O585      0.69920      .   S
    C253   O586      0.54416      .   S
    C53    O586      0.54416      .   S
    C253   O587      0.69904      .   S
    C249   O587      0.69904      .   S
    C254   O588      0.54420      .   S
    C54    O588      0.54420      .   S
    C254   O589      0.69923      .   S
    C250   O589      0.69923      .   S
    C255   O590      0.54416      .   S
    C55    O590      0.54416      .   S
    C255   O591      0.69924      .   S
    C251   O591      0.69924      .   S
    C247   O592      0.70463      .   S
    C251   O592      0.70463      .   S
    C247   O593      0.75072      .   S
    C283   O593      0.75072      .   S
    C246   O594      0.70462      .   S
    C250   O594      0.70462      .   S
    C246   O595      0.75073      .   S
    C282   O595      0.75073      .   S
    C245   O596      0.70443      .   S
    C249   O596      0.70443      .   S
    C245   O597      0.75070      .   S
    C281   O597      0.75070      .   S
    C244   O598      0.70462      .   S
    C248   O598      0.70462      .   S
    C244   O599      0.75071      .   S
    C280   O599      0.75071      .   S
    C78    O600      0.52110      .   S
    C283   O600      0.52110  1_565   S
    C79    O601      0.54785      .   S
    C282   O601      0.54785      .   S
    C76    O602      0.52206      .   S
    C281   O602      0.52206  1_565   S
    C77    O603      0.54784      .   S
    C280   O603      0.54784      .   S
    C290   O604      0.65587      .   S
    C295   O604      0.65587  1_565   S
    C290   O605      0.63625      .   S
    C450   O605      0.63625      .   S
    C291   O606      0.75208      .   S
    C294   O606      0.75208      .   S
    C291   O607      0.63625      .   S
    C451   O607      0.63625      .   S
    C288   O608      0.65646      .   S
    C293   O608      0.65646  1_565   S
    C288   O609      0.63632      .   S
    C448   O609      0.63632      .   S
    C289   O610      0.75197      .   S
    C292   O610      0.75197      .   S
    C289   O611      0.63627      .   S
    C449   O611      0.63627      .   S
    C295   O612      0.70192      .   S
    C299   O612      0.70192      .   S
    C294   O613      0.70189      .   S
    C298   O613      0.70189      .   S
    C292   O614      0.70217      .   S
    C296   O614      0.70217      .   S
    C293   O615      0.70186      .   S
    C297   O615      0.70186      .   S
    C350   O616      0.75199      .   S
    C338   O616      0.75199      .   S
    C350   O617      0.63783      .   S
    C474   O617      0.63783      .   S
    C351   O618      0.75194      .   S
    C339   O618      0.75194      .   S
    C351   O619      0.63759      .   S
    C475   O619      0.63759      .   S
    C349   O620      0.75253      .   S
    C337   O620      0.75253      .   S
    C349   O621      0.63715      .   S
    C473   O621      0.63715      .   S
    C348   O622      0.75246      .   S
    C336   O622      0.75246      .   S
    C348   O623      0.63725      .   S
    C472   O623      0.63725      .   S
    C249   O624      0.74444      .   S
    C261   O624      0.74444      .   S
    C248   O625      0.74407      .   S
    C260   O625      0.74407      .   S
    C250   O626      0.74411      .   S
    C262   O626      0.74411      .   S
    C251   O627      0.74411      .   S
    C263   O627      0.74411      .   S
    C306   O628      0.75200      .   S
    C318   O628      0.75200      .   S
    C306   O629      0.70169      .   S
    C302   O629      0.70169      .   S
    C307   O630      0.75199      .   S
    C319   O630      0.75199      .   S
    C307   O631      0.70185      .   S
    C303   O631      0.70185      .   S
    C305   O632      0.75201      .   S
    C317   O632      0.75201      .   S
    C305   O633      0.70182      .   S
    C301   O633      0.70182      .   S
    C304   O634      0.75201      .   S
    C316   O634      0.75201      .   S
    C304   O635      0.70184      .   S
    C300   O635      0.70184      .   S
    C339   O636      0.70198      .   S
    C335   O636      0.70198      .   S
    C338   O637      0.70202      .   S
    C334   O637      0.70202      .   S
    C337   O638      0.70209      .   S
    C333   O638      0.70209      .   S
    C336   O639      0.70208      .   S
    C332   O639      0.70208      .   S
    C317   O640      0.63476      .   S
    C461   O640      0.63476      .   S
    C316   O641      0.63659      .   S
    C460   O641      0.63659      .   S
    C318   O642      0.63650      .   S
    C462   O642      0.63650      .   S
    C319   O643      0.63651      .   S
    C463   O643      0.63651      .   S
    C327   O644      0.75209      .   S
    C321   O644      0.75209      .   S
    C327   O645      0.70156      .   S
    C331   O645      0.70156      .   S
    C326   O646      0.75204      .   S
    C320   O646      0.75204      .   S
    C326   O647      0.70140      .   S
    C330   O647      0.70140      .   S
    C324   O648      0.62812      .   S
    C322   O648      0.62812  1_655   S
    C324   O649      0.70138      .   S
    C328   O649      0.70138      .   S
    C325   O650      0.62811      .   S
    C323   O650      0.62811  1_655   S
    C325   O651      0.70130      .   S
    C329   O651      0.70130      .   S
    C86    O652      0.54893      .   S
    C286   O652      0.54893      .   S
    C87    O653      0.54900      .   S
    C287   O653      0.54900      .   S
    C321   O654      0.63847      .   S
    C465   O654      0.63847      .   S
    C320   O655      0.63848      .   S
    C464   O655      0.63848      .   S
    C85    O656      0.54900      .   S
    C285   O656      0.54900      .   S
    C84    O657      0.54900      .   S
    C284   O657      0.54900      .   S
    C322   O658      0.63830      .   S
    C466   O658      0.63830      .   S
    C323   O659      0.63825      .   S
    C467   O659      0.63825      .   S
    C283   O660      0.54959      .   S
    C83    O660      0.54959      .   S
    C283   O661      0.55001      .   S
    C75    O661      0.55001      .   S
    C282   O662      0.54958      .   S
    C82    O662      0.54958      .   S
    C282   O663      0.54903      .   S
    C74    O663      0.54903      .   S
    C281   O664      0.54961      .   S
    C81    O664      0.54961      .   S
    C281   O665      0.55000      .   S
    C73    O665      0.55000      .   S
    C280   O666      0.54962      .   S
    C80    O666      0.54962      .   S
    C280   O667      0.54998      .   S
    C72    O667      0.54998      .   S
    C95    O668      0.55044      .   S
    C287   O668      0.55044      .   S
    C94    O669      0.55043      .   S
    C286   O669      0.55043      .   S
    C93    O670      0.55043      .   S
    C285   O670      0.55043      .   S
    C92    O671      0.55043      .   S
    C284   O671      0.55043      .   S
    C450   O672      1.05073      .   S
    C14    O672      1.05073      .   S
    C451   O673      1.05074      .   S
    C15    O673      1.05074      .   S
    C449   O674      1.05103      .   S
    C13    O674      1.05103      .   S
    C448   O675      1.05106      .   S
    C12    O675      1.05106      .   S
    C287   O676      0.54827      .   S
    C89    O676      0.54827      .   S
    C287   O677      0.75115      .   S
    C279   O677      0.75115      .   S
    C286   O678      0.54832      .   S
    C88    O678      0.54832      .   S
    C286   O679      0.75118      .   S
    C278   O679      0.75118      .   S
    C285   O680      0.47013      .   S
    C91    O680      0.47013      .   S
    C285   O681      0.75119      .   S
    C277   O681      0.75119      .   S
    C284   O682      0.54031      .   S
    C90    O682      0.54031      .   S
    C284   O683      0.75120      .   S
    C276   O683      0.75120      .   S
    C473   O684      1.04419      .   S
    C13    O684      1.04419      .   S
    C475   O685      1.04076      .   S
    C15    O685      1.04076      .   S
    C474   O686      1.04074      .   S
    C14    O686      1.04074      .   S
    C472   O687      1.04416      .   S
    C12    O687      1.04416      .   S
    C299   O688      0.69632      .   S
    C303   O688      0.69632      .   S
    C299   O689      0.54479      .   S
    C99    O689      0.54479      .   S
    C298   O690      0.69629      .   S
    C302   O690      0.69629      .   S
    C298   O691      0.54477      .   S
    C98    O691      0.54477      .   S
    C297   O692      0.69631      .   S
    C301   O692      0.69631      .   S
    C297   O693      0.54482      .   S
    C97    O693      0.54482      .   S
    C296   O694      0.69631      .   S
    C300   O694      0.69631      .   S
    C296   O695      0.54479      .   S
    C96    O695      0.54479      .   S
    C302   O696      0.54270      .   S
    C102   O696      0.54270      .   S
    C303   O697      0.54484      .   S
    C103   O697      0.54484      .   S
    C301   O698      0.54483      .   S
    C101   O698      0.54483      .   S
    C300   O699      0.54486      .   S
    C100   O699      0.54486      .   S
    C461   O700      1.04233      .   S
    C13    O700      1.04233      .   S
    C460   O701      1.04183      .   S
    C12    O701      1.04183      .   S
    C462   O702      1.04134      .   S
    C14    O702      1.04134      .   S
    C463   O703      1.04131      .   S
    C15    O703      1.04131      .   S
    C335   O704      0.69582      .   S
    C331   O704      0.69582      .   S
    C335   O705      0.54434      .   S
    C119   O705      0.54434      .   S
    C334   O706      0.69581      .   S
    C330   O706      0.69581      .   S
    C334   O707      0.54443      .   S
    C118   O707      0.54443      .   S
    C332   O708      0.69619      .   S
    C328   O708      0.69619      .   S
    C332   O709      0.54450      .   S
    C116   O709      0.54450      .   S
    C333   O710      0.69615      .   S
    C329   O710      0.69615      .   S
    C333   O711      0.54446      .   S
    C117   O711      0.54446      .   S
    C331   O712      0.54452      .   S
    C115   O712      0.54452      .   S
    C330   O713      0.54448      .   S
    C114   O713      0.54448      .   S
    C329   O714      0.54217      .   S
    C113   O714      0.54217      .   S
    C328   O715      0.54455      .   S
    C112   O715      0.54455      .   S
    C467   O716      1.03246      .   S
    C15    O716      1.03246      .   S
    C466   O717      1.03245      .   S
    C14    O717      1.03245      .   S
    C465   O718      1.02840      .   S
    C13    O718      1.02840      .   S
    C464   O719      1.02842      .   S
    C12    O719      1.02842      .   S
    C262   O720      0.70561      .   S
    C278   O720      0.70561      .   S
    C262   O721      0.69947      .   S
    C266   O721      0.69947      .   S
    C260   O722      0.70561      .   S
    C276   O722      0.70561      .   S
    C260   O723      0.69946      .   S
    C264   O723      0.69946      .   S
    C263   O724      0.70560      .   S
    C279   O724      0.70560      .   S
    C263   O725      0.69946      .   S
    C267   O725      0.69946      .   S
    C261   O726      0.70562      .   S
    C277   O726      0.70562      .   S
    C261   O727      0.69944      .   S
    C265   O727      0.69944      .   S
    C14    O728      1.03546      .   S
    C414   O728      1.03546      .   S
    C15    O729      1.03548      .   S
    C415   O729      1.03548      .   S
    C12    O730      1.03559      .   S
    C412   O730      1.03559      .   S
    C13    O731      1.03581      .   S
    C413   O731      1.03581      .   S
    C278   O732      0.69946      .   S
    C274   O732      0.69946      .   S
    C279   O733      0.69941      .   S
    C275   O733      0.69941      .   S
    C277   O734      0.69948      .   S
    C273   O734      0.69948      .   S
    C276   O735      0.69946      .   S
    C272   O735      0.69946      .   S
    C60    O736      0.54486      .   S
    C264   O736      0.54486      .   S
    C61    O737      0.54484      .   S
    C265   O737      0.54484      .   S
    C62    O738      0.54483      .   S
    C266   O738      0.54483      .   S
    C63    O739      0.54481      .   S
    C267   O739      0.54481      .   S
    C264   O740      0.69361      .   S
    C268   O740      0.69361      .   S
    C265   O741      0.69359      .   S
    C269   O741      0.69359      .   S
    C266   O742      0.69361      .   S
    C270   O742      0.69361      .   S
    C267   O743      0.69363      .   S
    C271   O743      0.69363      .   S
    C147   O744      0.54788      .   S
    C383   O744      0.54788      .   S
    C144   O745      0.54454      .   S
    C380   O745      0.54454      .   S
    C145   O746      0.54455      .   S
    C381   O746      0.54455      .   S
    C146   O747      0.54456      .   S
    C382   O747      0.54456      .   S
    C275   O748      0.54550      .   S
    C71    O748      0.54550      .   S
    C275   O749      0.67429      .   S
    C407   O749      0.67429      .   S
    C274   O750      0.54549      .   S
    C70    O750      0.54549      .   S
    C274   O751      0.67428      .   S
    C406   O751      0.67428      .   S
    C273   O752      0.54551      .   S
    C69    O752      0.54551      .   S
    C273   O753      0.67431      .   S
    C405   O753      0.67431      .   S
    C272   O754      0.54552      .   S
    C68    O754      0.54552      .   S
    C272   O755      0.67431      .   S
    C404   O755      0.67431      .   S
    C414   O756      0.67449      .   S
    C382   O756      0.67449      .   S
    C414   O757      0.67431      .   S
    C386   O757      0.67431      .   S
    C415   O758      0.67449      .   S
    C383   O758      0.67449      .   S
    C415   O759      0.67429      .   S
    C387   O759      0.67429      .   S
    C412   O760      0.67462      .   S
    C380   O760      0.67462      .   S
    C412   O761      0.67440      .   S
    C384   O761      0.67440      .   S
    C413   O762      0.67452      .   S
    C381   O762      0.67452      .   S
    C413   O763      0.67428      .   S
    C385   O763      0.67428      .   S
    C268   O764      0.67447      .   S
    C404   O764      0.67447      .   S
    C268   O765      0.54456      .   S
    C64    O765      0.54456      .   S
    C269   O766      0.67449      .   S
    C405   O766      0.67449      .   S
    C269   O767      0.54459      .   S
    C65    O767      0.54459      .   S
    C270   O768      0.67452      .   S
    C406   O768      0.67452      .   S
    C270   O769      0.54459      .   S
    C66    O769      0.54459      .   S
    C271   O770      0.67452      .   S
    C407   O770      0.67452      .   S
    C271   O771      0.54458      .   S
    C67    O771      0.54458      .   S
    C151   O772      0.54551      .   S
    C387   O772      0.54551      .   S
    C150   O773      0.54550      .   S
    C386   O773      0.54550      .   S
    C149   O774      0.54549      .   S
    C385   O774      0.54549      .   S
    C148   O775      0.54550      .   S
    C384   O775      0.54550      .   S
    C380   O776      0.69363      .   S
    C376   O776      0.69363      .   S
    C381   O777      0.69360      .   S
    C377   O777      0.69360      .   S
    C382   O778      0.69358      .   S
    C378   O778      0.69358      .   S
    C383   O779      0.69339      .   S
    C379   O779      0.69339      .   S
    C406   O780      1.03582      .   S
    C6     O780      1.03582      .   S
    C407   O781      1.03581      .   S
    C7     O781      1.03581      .   S
    C404   O782      1.03549      .   S
    C4     O782      1.03549      .   S
    C405   O783      1.03547      .   S
    C5     O783      1.03547      .   S
    C387   O784      0.69946      .   S
    C391   O784      0.69946      .   S
    C386   O785      0.69941      .   S
    C390   O785      0.69941      .   S
    C385   O786      0.69946      .   S
    C389   O786      0.69946      .   S
    C384   O787      0.69940      .   S
    C388   O787      0.69940      .   S
    C376   O788      0.54484      .   S
    C140   O788      0.54484      .   S
    C376   O789      0.69946      .   S
    C372   O789      0.69946      .   S
    C377   O790      0.54468      .   S
    C141   O790      0.54468      .   S
    C377   O791      0.69948      .   S
    C373   O791      0.69948      .   S
    C378   O792      0.54484      .   S
    C142   O792      0.54484      .   S
    C378   O793      0.69945      .   S
    C374   O793      0.69945      .   S
    C379   O794      0.54477      .   S
    C143   O794      0.54477      .   S
    C379   O795      0.69954      .   S
    C375   O795      0.69954      .   S
    C34    O796      0.54455      .   S
    C218   O796      0.54455      .   S
    C35    O797      0.54456      .   S
    C219   O797      0.54456      .   S
    C33    O798      0.54574      .   S
    C217   O798      0.54574      .   S
    C32    O799      0.54453      .   S
    C216   O799      0.54453      .   S
    C38    O800      0.54446      .   S
    C222   O800      0.54446      .   S
    C39    O801      0.54450      .   S
    C223   O801      0.54450      .   S
    C36    O802      0.54445      .   S
    C220   O802      0.54445      .   S
    C37    O803      0.54443      .   S
    C221   O803      0.54443      .   S
    C21    O804      0.54486      .   S
    C189   O804      0.54486      .   S
    C20    O805      0.54489      .   S
    C188   O805      0.54489      .   S
    C23    O806      0.54486      .   S
    C191   O806      0.54486      .   S
    C22    O807      0.54484      .   S
    C190   O807      0.54484      .   S
    C17    O808      0.54482      .   S
    C185   O808      0.54482      .   S
    C16    O809      0.54478      .   S
    C184   O809      0.54478      .   S
    C19    O810      0.54479      .   S
    C187   O810      0.54479      .   S
    C18    O811      0.54482      .   S
    C186   O811      0.54482      .   S
    C391   O812      0.70563      .   S
    C375   O812      0.70563      .   S
    C391   O813      0.75112      .   S
    C399   O813      0.75112      .   S
    C390   O814      0.70563      .   S
    C374   O814      0.70563      .   S
    C390   O815      0.70616      .   S
    C398   O815      0.70616  1_455   S
    C389   O816      0.70560      .   S
    C373   O816      0.70560      .   S
    C389   O817      0.75115      .   S
    C397   O817      0.75115      .   S
    C388   O818      0.70560      .   S
    C372   O818      0.70560      .   S
    C388   O819      0.75116      .   S
    C396   O819      0.75116      .   S
    C169   O820      0.46093      .   S
    C399   O820      0.46093  1_655   S
    C168   O821      0.49921      .   S
    C398   O821      0.49921      .   S
    C171   O822      0.54827      .   S
    C397   O822      0.54827      .   S
    C170   O823      0.54827      .   S
    C396   O823      0.54827      .   S
    C7     O824      1.02836      .   S
    C435   O824      1.02836      .   S
    C7     O825      1.04185      .   S
    C431   O825      1.04185      .   S
    C7     O826      1.04416      .   S
    C443   O826      1.04416      .   S
    C7     O827      1.05106      .   S
    C419   O827      1.05106      .   S
    C6     O828      1.02840      .   S
    C434   O828      1.02840      .   S
    C6     O829      1.04070      .   S
    C430   O829      1.04070      .   S
    C6     O830      1.04417      .   S
    C442   O830      1.04417      .   S
    C6     O831      1.05103      .   S
    C418   O831      1.05103      .   S
    C4     O832      1.03240      .   S
    C432   O832      1.03240      .   S
    C4     O833      1.04132      .   S
    C428   O833      1.04132      .   S
    C4     O834      1.04077      .   S
    C440   O834      1.04077      .   S
    C4     O835      1.05073      .   S
    C416   O835      1.05073      .   S
    C5     O836      1.03243      .   S
    C433   O836      1.03243      .   S
    C5     O837      1.04133      .   S
    C429   O837      1.04133      .   S
    C5     O838      1.04075      .   S
    C441   O838      1.04075      .   S
    C5     O839      1.05075      .   S
    C417   O839      1.05075      .   S
    C372   O840      0.74411      .   S
    C360   O840      0.74411      .   S
    C374   O841      0.74409      .   S
    C362   O841      0.74409      .   S
    C373   O842      0.74411      .   S
    C361   O842      0.74411      .   S
    C375   O843      0.74407      .   S
    C363   O843      0.74407      .   S
    C435   O844      0.63869      .   S
    C211   O844      0.63869      .   S
    C434   O845      0.63847      .   S
    C210   O845      0.63847      .   S
    C432   O846      0.63845      .   S
    C208   O846      0.63845      .   S
    C433   O847      0.63804      .   S
    C209   O847      0.63804      .   S
    C218   O848      0.69618      .   S
    C222   O848      0.69618      .   S
    C218   O849      0.68359      .   S
    C214   O849      0.68359  1_455   S
    C219   O850      0.69619      .   S
    C223   O850      0.69619      .   S
    C219   O851      0.70138      .   S
    C215   O851      0.70138      .   S
    C216   O852      0.69580      .   S
    C220   O852      0.69580      .   S
    C216   O853      0.70137      .   S
    C212   O853      0.70137      .   S
    C217   O854      0.69582      .   S
    C221   O854      0.69582      .   S
    C217   O855      0.70140      .   S
    C213   O855      0.70140      .   S
    C222   O856      0.70204      .   S
    C226   O856      0.70204      .   S
    C223   O857      0.70202      .   S
    C227   O857      0.70202      .   S
    C221   O858      0.70202      .   S
    C225   O858      0.70202      .   S
    C220   O859      0.70205      .   S
    C224   O859      0.70205      .   S
    C430   O860      0.64096      .   S
    C206   O860      0.64096      .   S
    C428   O861      0.63651      .   S
    C204   O861      0.63651      .   S
    C429   O862      0.63650      .   S
    C205   O862      0.63650      .   S
    C431   O863      0.63659      .   S
    C207   O863      0.63659      .   S
    C191   O864      0.69631      .   S
    C187   O864      0.69631      .   S
    C191   O865      0.70184      .   S
    C195   O865      0.70184      .   S
    C189   O866      0.69633      .   S
    C185   O866      0.69633      .   S
    C189   O867      0.70183      .   S
    C193   O867      0.70183      .   S
    C190   O868      0.69631      .   S
    C186   O868      0.69631      .   S
    C190   O869      0.70183      .   S
    C194   O869      0.70183      .   S
    C188   O870      0.69632      .   S
    C184   O870      0.69632      .   S
    C188   O871      0.70183      .   S
    C192   O871      0.70183      .   S
    C187   O872      0.70182      .   S
    C183   O872      0.70182      .   S
    C186   O873      0.70186      .   S
    C182   O873      0.70186      .   S
    C185   O874      0.70188      .   S
    C181   O874      0.70188      .   S
    C184   O875      0.70191      .   S
    C180   O875      0.70191      .   S
    C442   O876      0.63725      .   S
    C238   O876      0.63725      .   S
    C443   O877      0.63725      .   S
    C239   O877      0.63725      .   S
    C441   O878      0.63756      .   S
    C237   O878      0.63756      .   S
    C440   O879      0.63754      .   S
    C236   O879      0.63754      .   S
    C399   O880      0.52940      .   S
    C175   O880      0.52940  1_455   S
    C399   O881      0.54917      .   S
    C167   O881      0.54917      .   S
    C398   O882      0.52374      .   S
    C174   O882      0.52374      .   S
    C398   O883      0.55332      .   S
    C166   O883      0.55332      .   S
    C397   O884      0.55042      .   S
    C173   O884      0.55042      .   S
    C397   O885      0.54887      .   S
    C165   O885      0.54887      .   S
    C396   O886      0.55044      .   S
    C172   O886      0.55044      .   S
    C396   O887      0.54899      .   S
    C164   O887      0.54899      .   S
    C419   O888      0.63631      .   S
    C179   O888      0.63631      .   S
    C418   O889      0.63627      .   S
    C178   O889      0.63627      .   S
    C416   O890      0.63625      .   S
    C176   O890      0.63625      .   S
    C417   O891      0.63625      .   S
    C177   O891      0.63625      .   S
    C155   O892      0.54999      .   S
    C395   O892      0.54999      .   S
    C154   O893      0.55001      .   S
    C394   O893      0.55001      .   S
    C153   O894      0.55002      .   S
    C393   O894      0.55002      .   S
    C152   O895      0.54994      .   S
    C392   O895      0.54994      .   S
    C162   O896      0.54960      .   S
    C394   O896      0.54960      .   S
    C160   O897      0.54934      .   S
    C392   O897      0.54934      .   S
    C161   O898      0.54961      .   S
    C393   O898      0.54961      .   S
    C163   O899      0.54961      .   S
    C395   O899      0.54961      .   S
    C395   O900      0.54777      .   S
    C158   O900      0.54777      .   S
    C395   O901      0.75072      .   S
    C359   O901      0.75072      .   S
    C394   O902      0.58512      .   S
    C159   O902      0.58512      .   S
    C394   O903      0.75071      .   S
    C358   O903      0.75071      .   S
    C392   O904      0.58382      .   S
    C157   O904      0.58382      .   S
    C392   O905      0.75086      .   S
    C356   O905      0.75086      .   S
    C393   O906      0.54782      .   S
    C156   O906      0.54782      .   S
    C393   O907      0.75068      .   S
    C357   O907      0.75068      .   S
    C209   O908      0.62819      .   S
    C215   O908      0.62819  1_655   S
    C209   O909      0.63535      .   S
    C437   O909      0.63535      .   S
    C208   O910      0.66062      .   S
    C214   O910      0.66062      .   S
    C208   O911      0.63516      .   S
    C436   O911      0.63516      .   S
    C211   O912      0.75203      .   S
    C213   O912      0.75203      .   S
    C211   O913      0.63492      .   S
    C439   O913      0.63492      .   S
    C210   O914      0.75203      .   S
    C212   O914      0.75203      .   S
    C210   O915      0.63492      .   S
    C438   O915      0.63492      .   S
    C214   O916      0.68798  1_455   S
    C234   O916      0.68798      .   S
    C215   O917      0.70180      .   S
    C235   O917      0.70180      .   S
    C213   O918      0.70169      .   S
    C233   O918      0.70169      .   S
    C212   O919      0.70171      .   S
    C232   O919      0.70171      .   S
    C204   O920      0.75200      .   S
    C192   O920      0.75200      .   S
    C204   O921      0.63696      .   S
    C424   O921      0.63696      .   S
    C205   O922      0.75200      .   S
    C193   O922      0.75200      .   S
    C205   O923      0.63696      .   S
    C425   O923      0.63696      .   S
    C207   O924      0.75201      .   S
    C195   O924      0.75201      .   S
    C207   O925      0.63735      .   S
    C427   O925      0.63735      .   S
    C206   O926      0.75200      .   S
    C194   O926      0.75200      .   S
    C206   O927      0.63737      .   S
    C426   O927      0.63737      .   S
    C227   O928      0.75246      .   S
    C239   O928      0.75246      .   S
    C227   O929      0.70188      .   S
    C231   O929      0.70188      .   S
    C226   O930      0.75244      .   S
    C238   O930      0.75244      .   S
    C226   O931      0.70186      .   S
    C230   O931      0.70186      .   S
    C225   O932      0.75191      .   S
    C237   O932      0.75191      .   S
    C225   O933      0.70169      .   S
    C229   O933      0.70169      .   S
    C224   O934      0.75193      .   S
    C236   O934      0.75193      .   S
    C224   O935      0.70166      .   S
    C228   O935      0.70166      .   S
    C195   O936      0.70172      .   S
    C199   O936      0.70172      .   S
    C194   O937      0.70173      .   S
    C198   O937      0.70173      .   S
    C193   O938      0.70172      .   S
    C197   O938      0.70172      .   S
    C192   O939      0.70172      .   S
    C196   O939      0.70172      .   S
    C360   O940      0.70462      .   S
    C356   O940      0.70462      .   S
    C360   O941      0.69926      .   S
    C364   O941      0.69926      .   S
    C361   O942      0.70460      .   S
    C357   O942      0.70460      .   S
    C361   O943      0.69922      .   S
    C365   O943      0.69922      .   S
    C362   O944      0.70463      .   S
    C358   O944      0.70463      .   S
    C362   O945      0.69922      .   S
    C366   O945      0.69922      .   S
    C363   O946      0.70464      .   S
    C359   O946      0.70464      .   S
    C363   O947      0.69922      .   S
    C367   O947      0.69922      .   S
    C238   O948      0.63636      .   S
    C446   O948      0.63636      .   S
    C239   O949      0.63629      .   S
    C447   O949      0.63629      .   S
    C237   O950      0.63595      .   S
    C445   O950      0.63595      .   S
    C236   O951      0.63596      .   S
    C444   O951      0.63596      .   S
    C183   O952      0.75203      .   S
    C178   O952      0.75203      .   S
    C183   O953      0.70149      .   S
    C203   O953      0.70149      .   S
    C182   O954      0.65646      .   S
    C179   O954      0.65646  1_565   S
    C182   O955      0.70150      .   S
    C202   O955      0.70150      .   S
    C181   O956      0.75207      .   S
    C176   O956      0.75207      .   S
    C181   O957      0.70148      .   S
    C201   O957      0.70148      .   S
    C180   O958      0.65589      .   S
    C177   O958      0.65589  1_565   S
    C180   O959      0.70147      .   S
    C200   O959      0.70147      .   S
    C178   O960      0.63765      .   S
    C422   O960      0.63765      .   S
    C179   O961      0.63760      .   S
    C423   O961      0.63760      .   S
    C177   O962      0.63776      .   S
    C421   O962      0.63776      .   S
    C176   O963      0.63735      .   S
    C420   O963      0.63735      .   S
    C132   O964      0.54417      .   S
    C364   O964      0.54417      .   S
    C133   O965      0.54418      .   S
    C365   O965      0.54418      .   S
    C134   O966      0.54418      .   S
    C366   O966      0.54418      .   S
    C135   O967      0.54417      .   S
    C367   O967      0.54417      .   S
    C359   O968      0.69860      .   S
    C355   O968      0.69860      .   S
    C358   O969      0.69892      .   S
    C354   O969      0.69892      .   S
    C357   O970      0.69899      .   S
    C353   O970      0.69899      .   S
    C356   O971      0.69895      .   S
    C352   O971      0.69895      .   S
    C364   O972      0.69342      .   S
    C368   O972      0.69342      .   S
    C365   O973      0.69325      .   S
    C369   O973      0.69325      .   S
    C366   O974      0.69342      .   S
    C370   O974      0.69342      .   S
    C367   O975      0.69325      .   S
    C371   O975      0.69325      .   S
    C438   O976      1.05083      .   S
    C2     O976      1.05083      .   S
    C439   O977      1.05087      .   S
    C3     O977      1.05087      .   S
    C437   O978      1.04841      .   S
    C1     O978      1.04841      .   S
    C436   O979      1.04838      .   S
    C0     O979      1.04838      .   S
    C425   O980      1.03624      .   S
    C1     O980      1.03624      .   S
    C424   O981      1.03624      .   S
    C0     O981      1.03624      .   S
    C427   O982      1.03599      .   S
    C3     O982      1.03599      .   S
    C426   O983      1.03599      .   S
    C2     O983      1.03599      .   S
    C235   O984      0.69636      .   S
    C231   O984      0.69636      .   S
    C235   O985      0.47836      .   S
    C47    O985      0.47836  1_455   S
    C234   O986      0.69633      .   S
    C230   O986      0.69633      .   S
    C234   O987      0.45469      .   S
    C46    O987      0.45469  1_455   S
    C233   O988      0.69632      .   S
    C229   O988      0.69632      .   S
    C233   O989      0.54456      .   S
    C45    O989      0.54456      .   S
    C232   O990      0.69631      .   S
    C228   O990      0.69631      .   S
    C232   O991      0.54460      .   S
    C44    O991      0.54460      .   S
    C230   O992      0.54466      .   S
    C42    O992      0.54466      .   S
    C231   O993      0.54461      .   S
    C43    O993      0.54461      .   S
    C229   O994      0.54466      .   S
    C41    O994      0.54466      .   S
    C228   O995      0.54462      .   S
    C40    O995      0.54462      .   S
    C446   O996      1.04144      .   S
    C2     O996      1.04144      .   S
    C447   O997      1.04145      .   S
    C3     O997      1.04145      .   S
    C444   O998      1.04828      .   S
    C0     O998      1.04828      .   S
    C445   O999      1.04832      .   S
    C1     O999      1.04832      .   S
    C199   O1000     0.69618      .   S
    C203   O1000     0.69618      .   S
    C199   O1001     0.54441      .   S
    C27    O1001     0.54441      .   S
    C198   O1002     0.69618      .   S
    C202   O1002     0.69618      .   S
    C198   O1003     0.54443      .   S
    C26    O1003     0.54443      .   S
    C196   O1004     0.69620      .   S
    C200   O1004     0.69620      .   S
    C196   O1005     0.54442      .   S
    C24    O1005     0.54442      .   S
    C197   O1006     0.69620      .   S
    C201   O1006     0.69620      .   S
    C197   O1007     0.54441      .   S
    C25    O1007     0.54441      .   S
    C203   O1008     0.54441      .   S
    C31    O1008     0.54441      .   S
    C202   O1009     0.54439      .   S
    C30    O1009     0.54439      .   S
    C201   O1010     0.54439      .   S
    C29    O1010     0.54439      .   S
    C200   O1011     0.54437      .   S
    C28    O1011     0.54437      .   S
    C420   O1012     1.03053      .   S
    C0     O1012     1.03053      .   S
    C422   O1013     1.03075      .   S
    C2     O1013     1.03075      .   S
    C423   O1014     1.03075      .   S
    C3     O1014     1.03075      .   S
    C421   O1015     1.03045      .   S
    C1     O1015     1.03045      .   S
    C355   O1016     0.54552      .   S
    C131   O1016     0.54552      .   S
    C355   O1017     0.67403      .   S
    C411   O1017     0.67403      .   S
    C354   O1018     0.54537      .   S
    C130   O1018     0.54537      .   S
    C354   O1019     0.67388      .   S
    C410   O1019     0.67388      .   S
    C352   O1020     0.54538      .   S
    C128   O1020     0.54538      .   S
    C352   O1021     0.67391      .   S
    C408   O1021     0.67391      .   S
    C353   O1022     0.54507      .   S
    C129   O1022     0.54507      .   S
    C353   O1023     0.67392      .   S
    C409   O1023     0.67392      .   S
    C369   O1024     0.67455      .   S
    C409   O1024     0.67455      .   S
    C369   O1025     0.54445      .   S
    C137   O1025     0.54445      .   S
    C368   O1026     0.67442      .   S
    C408   O1026     0.67442      .   S
    C368   O1027     0.54436      .   S
    C136   O1027     0.54436      .   S
    C370   O1028     0.67442      .   S
    C410   O1028     0.67442      .   S
    C370   O1029     0.54434      .   S
    C138   O1029     0.54434      .   S
    C371   O1030     0.67451      .   S
    C411   O1030     0.67451      .   S
    C371   O1031     0.54445      .   S
    C139   O1031     0.54445      .   S
    C0     O1032     1.44681      .   S
    C4     O1032     1.44681      .   S
    C1     O1033     1.44681      .   S
    C5     O1033     1.44681      .   S
    C2     O1034     1.44910      .   S
    C6     O1034     1.44910      .   S
    C3     O1035     1.44910      .   S
    C7     O1035     1.44910      .   S
    C8     O1036     1.44910      .   S
    C12    O1036     1.44910      .   S
    C9     O1037     1.44910      .   S
    C13    O1037     1.44910      .   S
    C10    O1038     1.44681      .   S
    C14    O1038     1.44681      .   S
    C11    O1039     1.44681      .   S
    C15    O1039     1.44681      .   S
