# CIF file generated by openbabel 2.4.90, see http://openbabel.sf.net
data_I
_chemical_name_common ''
_cell_length_a 8.75381
_cell_length_b 9.01039
_cell_length_c 14.899
_cell_angle_alpha 90.0054
_cell_angle_beta 90.0205
_cell_angle_gamma 90.0046
_space_group_name_H-M_alt 'P 1'
_space_group_name_Hall 'P 1'
loop_
    _symmetry_equiv_pos_as_xyz
    x,y,z
loop_
    _atom_site_label
    _atom_site_type_symbol
    _atom_site_fract_x
    _atom_site_fract_y
    _atom_site_fract_z
    _atom_site_occupancy
    Y0      Y    0.50069   0.00043   0.29303   1.000
    Y1      Y    0.00060   0.00039   0.98647   1.000
    Y2      Y    0.49908   0.50039   0.48646   1.000
    H3      H    0.18144   0.14920   0.77884   1.000
    H4      H    0.24971   0.73586   0.63951   1.000
    H5      H    0.31739   0.14961   0.50057   1.000
    H6      H    0.31812   0.64910   0.27887   1.000
    H7      H    0.24993   0.23578   0.13949   1.000
    H8      H    0.18253   0.64953   0.00049   1.000
    H9      H    0.81700   0.85132   0.77904   1.000
    H10     H    0.74974   0.26501   0.63999   1.000
    H11     H    0.68146   0.85165   0.50065   1.000
    H12     H    0.68236   0.35121   0.27891   1.000
    H13     H    0.75004   0.76494   0.14000   1.000
    H14     H    0.81830   0.35163   0.00064   1.000
    C15     C    0.24930   0.16771   0.63969   1.000
    C16     C    0.21044   0.08939   0.71765   1.000
    C17     C    0.20953   0.93393   0.71757   1.000
    C18     C    0.24966   0.85669   0.63955   1.000
    C19     C    0.28968   0.93416   0.56162   1.000
    C20     C    0.28848   0.08963   0.56170   1.000
    C21     C    0.24909   0.33415   0.63970   1.000
    C22     C    0.16068   0.84980   0.79942   1.000
    C23     C    0.33906   0.85057   0.47967   1.000
    C24     C    0.25035   0.66762   0.13968   1.000
    C25     C    0.28917   0.58930   0.21766   1.000
    C26     C    0.29005   0.43384   0.21758   1.000
    C27     C    0.25002   0.35661   0.13953   1.000
    C28     C    0.21006   0.43408   0.06158   1.000
    C29     C    0.21134   0.58954   0.06165   1.000
    C30     C    0.25067   0.83405   0.13970   1.000
    C31     C    0.33903   0.34973   0.29943   1.000
    Y32     Y    0.99920   0.50046   0.79304   1.000
    C33     C    0.16089   0.35047   0.97960   1.000
    C34     C    0.74918   0.83322   0.63985   1.000
    C35     C    0.79739   0.92049   0.71788   1.000
    C36     C    0.78954   0.06674   0.71793   1.000
    C37     C    0.74959   0.14418   0.63996   1.000
    C38     C    0.70956   0.06695   0.56191   1.000
    C39     C    0.71038   0.91149   0.56185   1.000
    C40     C    0.74888   0.66679   0.63989   1.000
    C41     C    0.83880   0.15037   0.79991   1.000
    C42     C    0.66069   0.15112   0.48005   1.000
    C43     C    0.75045   0.33315   0.13978   1.000
    C44     C    0.71124   0.41121   0.21778   1.000
    C45     C    0.71005   0.56665   0.21787   1.000
    C46     C    0.75004   0.64411   0.13994   1.000
    C47     C    0.79020   0.56692   0.06192   1.000
    C48     C    0.78926   0.41146   0.06182   1.000
    C49     C    0.75072   0.16672   0.13979   1.000
    C50     C    0.66078   0.65030   0.29983   1.000
    C51     C    0.83917   0.65108   0.98012   1.000
    O52     O    0.33459   0.40152   0.58406   1.000
    O53     O    0.16332   0.40135   0.69526   1.000
    O54     O    0.14750   0.91981   0.87314   1.000
    O55     O    0.13289   0.71208   0.79083   1.000
    O56     O    0.36634   0.71265   0.48774   1.000
    O57     O    0.35296   0.92130   0.40628   1.000
    O58     O    0.16526   0.90145   0.08400   1.000
    O59     O    0.33625   0.90120   0.19542   1.000
    O60     O    0.36689   0.21203   0.29084   1.000
    O61     O    0.35209   0.41971   0.37317   1.000
    O62     O    0.14715   0.42116   0.90617   1.000
    O63     O    0.13342   0.21261   0.98769   1.000
    O64     O    0.66310   0.59955   0.58432   1.000
    O65     O    0.83451   0.59949   0.69552   1.000
    O66     O    0.85251   0.07971   0.87335   1.000
    O67     O    0.86635   0.28822   0.79176   1.000
    O68     O    0.63285   0.28882   0.48866   1.000
    O69     O    0.64766   0.08124   0.40628   1.000
    O70     O    0.83669   0.09957   0.08433   1.000
    O71     O    0.66505   0.09934   0.19534   1.000
    O72     O    0.63347   0.78818   0.29172   1.000
    O73     O    0.64693   0.57960   0.37324   1.000
    O74     O    0.85245   0.58117   0.90638   1.000
    O75     O    0.86690   0.78881   0.98874   1.000
loop_
    _geom_bond_atom_site_label_1
    _geom_bond_atom_site_label_2
    _geom_bond_distance
    _geom_bond_site_symmetry_2
    _ccdc_geom_bond_type
    H8     C29       1.08901      .   S
    H14    C48       1.08905      .   S
    C28    C29       1.40083      .   S
    C28    C27       1.39943      .   S
    C28    C33       1.49799  1_554   S
    C29    C24       1.40103      .   S
    C48    C47       1.40082      .   S
    C48    C43       1.40107      .   S
    C47    C46       1.39958      .   S
    C47    C51       1.49819  1_554   S
    O58    C30       1.27127      .   S
    O58    Y1        2.23228  1_564   S
    O70    C49       1.27114      .   S
    O70    Y1        2.23261  1_654   S
    H7     C27       1.08874      .   S
    C27    C26       1.39955      .   S
    C24    C30       1.49961      .   S
    C24    C25       1.40119      .   S
    C30    O59       1.27116      .   S
    C43    C49       1.49966      .   S
    C43    C44       1.40103      .   S
    C49    O71       1.27133      .   S
    C46    H13       1.08874      .   S
    C46    C45       1.39943      .   S
    O71    Y0        2.23262      .   S
    O59    Y0        2.23265  1_565   S
    C26    C25       1.40078      .   S
    C26    C31       1.49840      .   S
    C25    H6        1.08902      .   S
    C44    C45       1.40059      .   S
    C44    H12       1.08903      .   S
    C45    C50       1.49846      .   S
    O60    Y0        2.23791      .   S
    O60    C31       1.27092      .   S
    O72    Y0        2.23821  1_565   S
    O72    C50       1.27090      .   S
    Y0     O57       2.24252  1_545   S
    Y0     O69       2.24289      .   S
    C31    O61       1.27176      .   S
    C50    O73       1.27164      .   S
    O61    Y2        2.24304      .   S
    O73    Y2        2.24314      .   S
    O57    C23       1.27159      .   S
    O69    C42       1.27169      .   S
    C23    O56       1.27115      .   S
    C23    C19       1.49836      .   S
    C42    O68       1.27093      .   S
    C42    C38       1.49852      .   S
    Y2     O56       2.23801      .   S
    Y2     O68       2.23759      .   S
    Y2     O52       2.23232      .   S
    Y2     O64       2.23239      .   S
    H5     C20       1.08900      .   S
    H11    C39       1.08905      .   S
    C19    C20       1.40084  1_565   S
    C19    C18       1.39947      .   S
    C20    C15       1.40106      .   S
    C39    C38       1.40085  1_565   S
    C39    C34       1.40113      .   S
    C38    C37       1.39956      .   S
    O52    C21       1.27129      .   S
    O64    C40       1.27115      .   S
    H4     C18       1.08875      .   S
    C18    C17       1.39965      .   S
    C15    C21       1.49970      .   S
    C15    C16       1.40118      .   S
    C21    O53       1.27114      .   S
    C34    C40       1.49961      .   S
    C34    C35       1.46543      .   S
    C40    O65       1.27129      .   S
    C37    H10       1.08873      .   S
    C37    C36       1.39943      .   S
    O53    Y32       2.23279  1_455   S
    O65    Y32       2.23263      .   S
    C17    C16       1.40080  1_565   S
    C17    C22       1.49844      .   S
    C16    H3        1.08904      .   S
    C35    C36       1.31958  1_565   S
    C35    H9        1.11723      .   S
    C36    C41       1.49833      .   S
    O55    Y32       2.23744  1_455   S
    O55    C22       1.27096      .   S
    O67    Y32       2.23825      .   S
    O67    C41       1.27108      .   S
    Y32    O62       2.24230  1_655   S
    Y32    O74       2.24329      .   S
    C22    O54       1.27175      .   S
    C41    O66       1.27168      .   S
    O54    Y1        2.24351  1_565   S
    O66    Y1        2.24286  1_655   S
    O62    C33       1.27163      .   S
    O74    C51       1.27167      .   S
    C33    O63       1.27101      .   S
    C51    O75       1.27097      .   S
    Y1     O63       2.23785      .   S
    Y1     O75       2.23726  1_445   S
