# CIF file generated by openbabel 2.4.90, see http://openbabel.sf.net
data_I
_chemical_name_common ''
_cell_length_a 8.75381
_cell_length_b 9.01039
_cell_length_c 14.899
_cell_angle_alpha 90.0054
_cell_angle_beta 90.0205
_cell_angle_gamma 90.0046
_space_group_name_H-M_alt 'P 1'
_space_group_name_Hall 'P 1'
loop_
    _symmetry_equiv_pos_as_xyz
    x,y,z
loop_
    _atom_site_label
    _atom_site_type_symbol
    _atom_site_fract_x
    _atom_site_fract_y
    _atom_site_fract_z
    _atom_site_occupancy
    Zr0     Zr   0.99920   0.50046   0.79304   1.000
    Zr1     Zr   0.50069   0.00043   0.29303   1.000
    Zr2     Zr   0.00060   0.00039   0.98647   1.000
    Zr3     Zr   0.49908   0.50039   0.48646   1.000
    N4      N    0.25018   0.51154   0.13959   1.000
    O5      O    0.33432   0.73118   0.19191   1.000
    O6      O    0.16168   0.48618   0.99459   1.000
    O7      O    0.16655   0.73123   0.08741   1.000
    O8      O    0.33788   0.48580   0.28470   1.000
    O9      O    0.15859   0.30902   0.06333   1.000
    O10     O    0.34198   0.30889   0.21576   1.000
    N11     N    0.24956   0.01163   0.63960   1.000
    O12     O    0.16541   0.23127   0.69187   1.000
    O13     O    0.33320   0.23129   0.58743   1.000
    O14     O    0.15780   0.80895   0.71577   1.000
    O15     O    0.33819   0.98625   0.49463   1.000
    O16     O    0.16180   0.98587   0.78470   1.000
    O17     O    0.34113   0.80908   0.56335   1.000
    N18     N    0.75023   0.48922   0.13990   1.000
    O19     O    0.83444   0.26960   0.08765   1.000
    O20     O    0.84199   0.69191   0.06375   1.000
    O21     O    0.66161   0.51461   0.28487   1.000
    O22     O    0.83803   0.51502   0.99480   1.000
    O23     O    0.66655   0.26956   0.19204   1.000
    O24     O    0.65865   0.69176   0.21614   1.000
    N25     N    0.74996   0.98980   0.63993   1.000
    O26     O    0.65796   0.19220   0.56375   1.000
    O27     O    0.66206   0.01532   0.49479   1.000
    O28     O    0.83340   0.76989   0.69210   1.000
    O29     O    0.83826   0.01492   0.78492   1.000
    O30     O    0.66552   0.76989   0.58766   1.000
    O31     O    0.84137   0.19207   0.71617   1.000
loop_
    _geom_bond_atom_site_label_1
    _geom_bond_atom_site_label_2
    _geom_bond_distance
    _geom_bond_site_symmetry_2
    _ccdc_geom_bond_type
    N4     O5        2.25071      .   S
    Zr1    O5        3.20530  1_545   S
    N4     O6        2.30602  1_554   S
    Zr0    O6        3.32485  1_655   S
    N4     O7        2.24914      .   S
    Zr2    O7        3.20215  1_546   S
    N4     O8        2.30581      .   S
    Zr3    O8        3.32289      .   S
    N4     O9        2.29394      .   S
    Zr2    O9        3.30986  1_556   S
    N4     O10       2.29525      .   S
    Zr1    O10       3.31362      .   S
    N11    O12       2.25077      .   S
    Zr0    O12       3.20520  1_655   S
    N11    O13       2.24899      .   S
    Zr3    O13       3.20195      .   S
    N11    O14       2.29540  1_545   S
    Zr0    O14       3.31365  1_655   S
    N11    O15       2.30670  1_545   S
    Zr1    O15       3.32628  1_545   S
    N11    O16       2.30628  1_545   S
    Zr2    O16       3.32388  1_545   S
    N11    O17       2.29448  1_545   S
    Zr3    O17       3.31076      .   S
    N18    O19       2.25071      .   S
    Zr2    O19       3.20525  1_456   S
    N18    O20       2.29533      .   S
    Zr2    O20       3.31370  1_446   S
    N18    O21       2.30670      .   S
    Zr3    O21       3.32638      .   S
    N18    O22       2.30634  1_554   S
    Zr0    O22       3.32379      .   S
    N18    O23       2.24906      .   S
    Zr1    O23       3.20218      .   S
    N18    O24       2.29431      .   S
    Zr1    O24       3.31076  1_545   S
    N25    O26       2.29413  1_565   S
    Zr3    O26       3.31234      .   S
    N25    O27       2.30646  1_565   S
    Zr1    O27       3.32370      .   S
    N25    O28       2.25038      .   S
    Zr0    O28       3.20325      .   S
    N25    O29       2.30517  1_565   S
    Zr2    O29       3.32430  1_455   S
    N25    O30       2.25349      .   S
    Zr3    O30       3.20777      .   S
    N25    O31       2.29146  1_565   S
    Zr0    O31       3.30754      .   S
