# CIF file generated by openbabel 2.4.90, see http://openbabel.sf.net
data_I
_chemical_name_common ''
_cell_length_a 8.75381
_cell_length_b 9.01039
_cell_length_c 14.899
_cell_angle_alpha 90.0054
_cell_angle_beta 90.0205
_cell_angle_gamma 90.0046
_space_group_name_H-M_alt 'P 1'
_space_group_name_Hall 'P 1'
loop_
    _symmetry_equiv_pos_as_xyz
    x,y,z
loop_
    _atom_site_label
    _atom_site_type_symbol
    _atom_site_fract_x
    _atom_site_fract_y
    _atom_site_fract_z
    _atom_site_occupancy
    C0      C    0.99920   0.50046   0.79304   1.000
    C1      C    0.50069   0.00043   0.29303   1.000
    C2      C    0.00060   0.00039   0.98647   1.000
    C3      C    0.49908   0.50039   0.48646   1.000
    C4      C    0.18144   0.14920   0.77884   1.000
    C5      C    0.24971   0.73586   0.63951   1.000
    C6      C    0.31739   0.14961   0.50057   1.000
    C7      C    0.31812   0.64910   0.27887   1.000
    C8      C    0.24993   0.23578   0.13949   1.000
    C9      C    0.18253   0.64953   0.00049   1.000
    C10     C    0.81700   0.85132   0.77904   1.000
    C11     C    0.74974   0.26501   0.63999   1.000
    C12     C    0.68146   0.85165   0.50065   1.000
    C13     C    0.68236   0.35121   0.27891   1.000
    C14     C    0.75004   0.76494   0.14000   1.000
    C15     C    0.81830   0.35163   0.00064   1.000
    C16     C    0.24930   0.16771   0.63969   1.000
    C17     C    0.21044   0.08939   0.71765   1.000
    C18     C    0.20953   0.93393   0.71757   1.000
    C19     C    0.24966   0.85669   0.63955   1.000
    C20     C    0.28968   0.93416   0.56162   1.000
    C21     C    0.28848   0.08963   0.56170   1.000
    C22     C    0.24909   0.33415   0.63970   1.000
    C23     C    0.16068   0.84980   0.79942   1.000
    C24     C    0.33906   0.85057   0.47967   1.000
    C25     C    0.25035   0.66762   0.13968   1.000
    C26     C    0.28917   0.58930   0.21766   1.000
    C27     C    0.29005   0.43384   0.21758   1.000
    C28     C    0.25002   0.35661   0.13953   1.000
    C29     C    0.21006   0.43408   0.06158   1.000
    C30     C    0.21134   0.58954   0.06165   1.000
    C31     C    0.25067   0.83405   0.13970   1.000
    C32     C    0.33903   0.34973   0.29943   1.000
    C33     C    0.16089   0.35047   0.97960   1.000
    C34     C    0.74918   0.83322   0.63985   1.000
    C35     C    0.79739   0.92049   0.71788   1.000
    C36     C    0.78954   0.06674   0.71793   1.000
    C37     C    0.74959   0.14418   0.63996   1.000
    C38     C    0.70956   0.06695   0.56191   1.000
    C39     C    0.71038   0.91149   0.56185   1.000
    C40     C    0.74888   0.66679   0.63989   1.000
    C41     C    0.83880   0.15037   0.79991   1.000
    C42     C    0.66069   0.15112   0.48005   1.000
    C43     C    0.75045   0.33315   0.13978   1.000
    C44     C    0.71124   0.41121   0.21778   1.000
    C45     C    0.71005   0.56665   0.21787   1.000
    C46     C    0.75004   0.64411   0.13994   1.000
    C47     C    0.79020   0.56692   0.06192   1.000
    C48     C    0.78926   0.41146   0.06182   1.000
    C49     C    0.75072   0.16672   0.13979   1.000
    C50     C    0.66078   0.65030   0.29983   1.000
    C51     C    0.83917   0.65108   0.98012   1.000
    C52     C    0.33459   0.40152   0.58406   1.000
    C53     C    0.16332   0.40135   0.69526   1.000
    C54     C    0.14750   0.91981   0.87314   1.000
    C55     C    0.13289   0.71208   0.79083   1.000
    C56     C    0.36634   0.71265   0.48774   1.000
    C57     C    0.35296   0.92130   0.40628   1.000
    C58     C    0.16526   0.90145   0.08400   1.000
    C59     C    0.33625   0.90120   0.19542   1.000
    C60     C    0.36689   0.21203   0.29084   1.000
    C61     C    0.35209   0.41971   0.37317   1.000
    C62     C    0.14715   0.42116   0.90617   1.000
    C63     C    0.13342   0.21261   0.98769   1.000
    C64     C    0.66310   0.59955   0.58432   1.000
    C65     C    0.83451   0.59949   0.69552   1.000
    C66     C    0.85251   0.07971   0.87335   1.000
    C67     C    0.86635   0.28822   0.79176   1.000
    C68     C    0.63285   0.28882   0.48866   1.000
    C69     C    0.64766   0.08124   0.40628   1.000
    C70     C    0.83669   0.09957   0.08433   1.000
    C71     C    0.66505   0.09934   0.19534   1.000
    C72     C    0.63347   0.78818   0.29172   1.000
    C73     C    0.64693   0.57960   0.37324   1.000
    C74     C    0.85245   0.58117   0.90638   1.000
    C75     C    0.86690   0.78881   0.98874   1.000
    O76     O    0.19693   0.61954   0.03107   1.000
    O77     O    0.80378   0.38154   0.03123   1.000
    O78     O    0.21070   0.51181   0.06161   1.000
    O79     O    0.23004   0.39534   0.10056   1.000
    O80     O    0.18547   0.39228   0.02059   1.000
    O81     O    0.23084   0.62858   0.10067   1.000
    O82     O    0.78973   0.48919   0.06187   1.000
    O83     O    0.76985   0.37230   0.10080   1.000
    O84     O    0.77012   0.60552   0.10093   1.000
    O85     O    0.81469   0.60900   0.02102   1.000
    O86     O    0.20796   0.86775   0.11185   1.000
    O87     O    0.08293   0.95092   0.03523   1.000
    O88     O    0.79371   0.13314   0.11206   1.000
    O89     O    0.91865   0.04998   0.03540   1.000
    O90     O    0.24997   0.29620   0.13951   1.000
    O91     O    0.27003   0.39522   0.17856   1.000
    O92     O    0.25051   0.75084   0.13969   1.000
    O93     O    0.26976   0.62846   0.17867   1.000
    O94     O    0.29346   0.86763   0.16756   1.000
    O95     O    0.75058   0.24994   0.13979   1.000
    O96     O    0.73084   0.37218   0.17878   1.000
    O97     O    0.70788   0.13303   0.16756   1.000
    O98     O    0.75004   0.70453   0.13997   1.000
    O99     O    0.73005   0.60538   0.17891   1.000
    O100    O    0.58287   0.04989   0.24418   1.000
    O101    O    0.41847   0.95082   0.24423   1.000
    O102    O    0.28961   0.51157   0.21762   1.000
    O103    O    0.31454   0.39178   0.25851   1.000
    O104    O    0.30365   0.61920   0.24827   1.000
    O105    O    0.71064   0.48893   0.21783   1.000
    O106    O    0.69680   0.38121   0.24834   1.000
    O107    O    0.68541   0.60847   0.25885   1.000
    O108    O    0.43379   0.10623   0.29193   1.000
    O109    O    0.35296   0.28088   0.29514   1.000
    O110    O    0.56708   0.89431   0.29237   1.000
    O111    O    0.64713   0.71924   0.29577   1.000
    O112    O    0.42683   0.96086   0.34965   1.000
    O113    O    0.57417   0.04084   0.34966   1.000
    O114    O    0.34556   0.38472   0.33630   1.000
    O115    O    0.65385   0.61495   0.33653   1.000
    O116    O    0.42559   0.46005   0.42982   1.000
    O117    O    0.57300   0.54000   0.42985   1.000
    O118    O    0.34601   0.88593   0.44297   1.000
    O119    O    0.65418   0.11618   0.44316   1.000
    O120    O    0.35270   0.78161   0.48371   1.000
    O121    O    0.31437   0.89237   0.52065   1.000
    O122    O    0.64677   0.21997   0.48435   1.000
    O123    O    0.68513   0.10904   0.52098   1.000
    O124    O    0.43271   0.60652   0.48710   1.000
    O125    O    0.56596   0.39461   0.48756   1.000
    O126    O    0.41683   0.45096   0.53526   1.000
    O127    O    0.58109   0.54997   0.53539   1.000
    O128    O    0.30293   0.11962   0.53114   1.000
    O129    O    0.69592   0.88157   0.53125   1.000
    O130    O    0.28908   0.01189   0.56166   1.000
    O131    O    0.26967   0.89543   0.60058   1.000
    O132    O    0.26889   0.12867   0.60070   1.000
    O133    O    0.70997   0.98922   0.56188   1.000
    O134    O    0.72978   0.87235   0.60085   1.000
    O135    O    0.72958   0.10557   0.60093   1.000
    O136    O    0.29184   0.36784   0.61188   1.000
    O137    O    0.70599   0.63317   0.61210   1.000
    O138    O    0.24969   0.79627   0.63953   1.000
    O139    O    0.22960   0.89531   0.67856   1.000
    O140    O    0.24919   0.25093   0.63970   1.000
    O141    O    0.22987   0.12855   0.67867   1.000
    O142    O    0.20620   0.36775   0.66748   1.000
    O143    O    0.74903   0.75000   0.63987   1.000
    O144    O    0.77329   0.87686   0.67887   1.000
    O145    O    0.79169   0.63314   0.66770   1.000
    O146    O    0.74967   0.20459   0.63997   1.000
    O147    O    0.76957   0.10546   0.67894   1.000
    O148    O    0.08126   0.45091   0.74415   1.000
    O149    O    0.91685   0.54998   0.74428   1.000
    O150    O    0.20998   0.01166   0.71761   1.000
    O151    O    0.18510   0.89187   0.75849   1.000
    O152    O    0.19594   0.11929   0.74825   1.000
    O153    O    0.79347   0.99362   0.71790   1.000
    O154    O    0.80719   0.88591   0.74846   1.000
    O155    O    0.81417   0.10856   0.75892   1.000
    O156    O    0.06605   0.60627   0.79193   1.000
    O157    O    0.14679   0.78094   0.79513   1.000
    O158    O    0.93278   0.39434   0.79240   1.000
    O159    O    0.85257   0.21930   0.79584   1.000
    O160    O    0.07318   0.46081   0.84960   1.000
    O161    O    0.92583   0.54082   0.84971   1.000
    O162    O    0.15409   0.88481   0.83628   1.000
    O163    O    0.84566   0.11504   0.83663   1.000
    O164    O    0.07405   0.96010   0.92980   1.000
    O165    O    0.92656   0.04005   0.92991   1.000
    O166    O    0.15402   0.38582   0.94288   1.000
    O167    O    0.84581   0.61612   0.94325   1.000
    O168    O    0.14715   0.28154   0.98364   1.000
    O169    O    0.85304   0.71994   0.98443   1.000
    O170    O    0.06701   0.10650   0.98708   1.000
    O171    O    0.93375   0.89460   0.98760   1.000
loop_
    _geom_bond_atom_site_label_1
    _geom_bond_atom_site_label_2
    _geom_bond_distance
    _geom_bond_site_symmetry_2
    _ccdc_geom_bond_type
    C9     O76       0.54451      .   S
    C30    O76       0.54451      .   S
    C15    O77       0.54452      .   S
    C48    O77       0.54452      .   S
    C29    O78       0.70041      .   S
    C30    O78       0.70041      .   S
    C29    O79       0.69972      .   S
    C28    O79       0.69972      .   S
    C29    O80       0.74900      .   S
    C33    O80       0.74900  1_556   S
    C30    O81       0.70052      .   S
    C25    O81       0.70052      .   S
    C48    O82       0.70041      .   S
    C47    O82       0.70041      .   S
    C48    O83       0.70053      .   S
    C43    O83       0.70053      .   S
    C47    O84       0.69979      .   S
    C46    O84       0.69979      .   S
    C47    O85       0.74910      .   S
    C51    O85       0.74910  1_556   S
    C58    O86       0.63563      .   S
    C31    O86       0.63563      .   S
    C58    O87       1.11614      .   S
    C2     O87       1.11614  1_546   S
    C70    O88       0.63557      .   S
    C49    O88       0.63557      .   S
    C70    O89       1.11630      .   S
    C2     O89       1.11630  1_456   S
    C8     O90       0.54437      .   S
    C28    O90       0.54437      .   S
    C28    O91       0.69978      .   S
    C27    O91       0.69978      .   S
    C25    O92       0.74981      .   S
    C31    O92       0.74981      .   S
    C25    O93       0.70059      .   S
    C26    O93       0.70059      .   S
    C31    O94       0.63558      .   S
    C59    O94       0.63558      .   S
    C43    O95       0.74983      .   S
    C49    O95       0.74983      .   S
    C43    O96       0.70051      .   S
    C44    O96       0.70051      .   S
    C49    O97       0.63567      .   S
    C71    O97       0.63567      .   S
    C46    O98       0.54437      .   S
    C14    O98       0.54437      .   S
    C46    O99       0.69972      .   S
    C45    O99       0.69972      .   S
    C71    O100      1.11631      .   S
    C1     O100      1.11631      .   S
    C59    O101      1.11633      .   S
    C1     O101      1.11633  1_545   S
    C27    O102      0.70039      .   S
    C26    O102      0.70039      .   S
    C27    O103      0.74920      .   S
    C32    O103      0.74920      .   S
    C26    O104      0.54451      .   S
    C7     O104      0.54451      .   S
    C44    O105      0.70029      .   S
    C45    O105      0.70029      .   S
    C44    O106      0.54451      .   S
    C13    O106      0.54451      .   S
    C45    O107      0.74923      .   S
    C50    O107      0.74923      .   S
    C60    O108      1.11896      .   S
    C1     O108      1.11896      .   S
    C60    O109      0.63546      .   S
    C32    O109      0.63546      .   S
    C72    O110      1.11910      .   S
    C1     O110      1.11910  1_545   S
    C72    O111      0.63545      .   S
    C50    O111      0.63545      .   S
    C1     O112      1.12126  1_545   S
    C57    O112      1.12126      .   S
    C1     O113      1.12145      .   S
    C69    O113      1.12145      .   S
    C32    O114      0.63588      .   S
    C61    O114      0.63588      .   S
    C50    O115      0.63582      .   S
    C73    O115      0.63582      .   S
    C61    O116      1.12152      .   S
    C3     O116      1.12152      .   S
    C73    O117      1.12157      .   S
    C3     O117      1.12157      .   S
    C57    O118      0.63580      .   S
    C24    O118      0.63580      .   S
    C69    O119      0.63584      .   S
    C42    O119      0.63584      .   S
    C24    O120      0.63558      .   S
    C56    O120      0.63558      .   S
    C24    O121      0.74918      .   S
    C20    O121      0.74918      .   S
    C42    O122      0.63546      .   S
    C68    O122      0.63546      .   S
    C42    O123      0.74926      .   S
    C38    O123      0.74926      .   S
    C3     O124      1.11900      .   S
    C56    O124      1.11900      .   S
    C3     O125      1.11880      .   S
    C68    O125      1.11880      .   S
    C3     O126      1.11616      .   S
    C52    O126      1.11616      .   S
    C3     O127      1.11619      .   S
    C64    O127      1.11619      .   S
    C6     O128      0.54450      .   S
    C21    O128      0.54450      .   S
    C12    O129      0.54453      .   S
    C39    O129      0.54453      .   S
    C20    O130      0.70042  1_565   S
    C21    O130      0.70042      .   S
    C20    O131      0.69974      .   S
    C19    O131      0.69974      .   S
    C21    O132      0.70053      .   S
    C16    O132      0.70053      .   S
    C39    O133      0.70042      .   S
    C38    O133      0.70042  1_545   S
    C39    O134      0.70057      .   S
    C34    O134      0.70057      .   S
    C38    O135      0.69978      .   S
    C37    O135      0.69978      .   S
    C52    O136      0.63564      .   S
    C22    O136      0.63564      .   S
    C64    O137      0.63557      .   S
    C40    O137      0.63557      .   S
    C5     O138      0.54438      .   S
    C19    O138      0.54438      .   S
    C19    O139      0.69982      .   S
    C18    O139      0.69982      .   S
    C16    O140      0.74985      .   S
    C22    O140      0.74985      .   S
    C16    O141      0.70059      .   S
    C17    O141      0.70059      .   S
    C22    O142      0.63557      .   S
    C53    O142      0.63557      .   S
    C34    O143      0.74981      .   S
    C40    O143      0.74981      .   S
    C34    O144      0.73272      .   S
    C35    O144      0.73272      .   S
    C40    O145      0.63565      .   S
    C65    O145      0.63565      .   S
    C37    O146      0.54436      .   S
    C11    O146      0.54436      .   S
    C37    O147      0.69972      .   S
    C36    O147      0.69972      .   S
    C53    O148      1.11640      .   S
    C0     O148      1.11640  1_655   S
    C65    O149      1.11631      .   S
    C0     O149      1.11631      .   S
    C18    O150      0.70040  1_565   S
    C17    O150      0.70040      .   S
    C18    O151      0.74922      .   S
    C23    O151      0.74922      .   S
    C17    O152      0.54452      .   S
    C4     O152      0.54452      .   S
    C35    O153      0.65979      .   S
    C36    O153      0.65979  1_545   S
    C35    O154      0.55861      .   S
    C10    O154      0.55861      .   S
    C36    O155      0.74916      .   S
    C41    O155      0.74916      .   S
    C55    O156      1.11872      .   S
    C0     O156      1.11872  1_655   S
    C55    O157      0.63548      .   S
    C23    O157      0.63548      .   S
    C67    O158      1.11912      .   S
    C0     O158      1.11912      .   S
    C67    O159      0.63554      .   S
    C41    O159      0.63554      .   S
    C0     O160      1.12115  1_655   S
    C62    O160      1.12115      .   S
    C0     O161      1.12164      .   S
    C74    O161      1.12164      .   S
    C23    O162      0.63587      .   S
    C54    O162      0.63587      .   S
    C41    O163      0.63584      .   S
    C66    O163      0.63584      .   S
    C54    O164      1.12175      .   S
    C2     O164      1.12175  1_545   S
    C66    O165      1.12143      .   S
    C2     O165      1.12143  1_455   S
    C62    O166      0.63581      .   S
    C33    O166      0.63581      .   S
    C74    O167      0.63583      .   S
    C51    O167      0.63583      .   S
    C33    O168      0.63550      .   S
    C63    O168      0.63550      .   S
    C51    O169      0.63549      .   S
    C75    O169      0.63549      .   S
    C2     O170      1.11893      .   S
    C63    O170      1.11893      .   S
    C2     O171      1.11863  1_445   S
    C75    O171      1.11863      .   S
