# CIF file generated by openbabel 2.4.90, see http://openbabel.sf.net
data_I
_chemical_name_common ''
_cell_length_a 17.434
_cell_length_b 12.841
_cell_length_c 17.875
_cell_angle_alpha 90.002
_cell_angle_beta 89.998
_cell_angle_gamma 112.94
_space_group_name_H-M_alt 'P 1'
_space_group_name_Hall 'P 1'
loop_
    _symmetry_equiv_pos_as_xyz
    x,y,z
loop_
    _atom_site_label
    _atom_site_type_symbol
    _atom_site_fract_x
    _atom_site_fract_y
    _atom_site_fract_z
    _atom_site_occupancy
    H0      H    0.28925   0.65175   0.80430   1.000
    H1      H    0.78925   0.65175   0.80430   1.000
    H2      H    0.18579   0.46305   0.76612   1.000
    H3      H    0.68579   0.46305   0.76612   1.000
    H4      H    0.32823   0.47985   0.56535   1.000
    H5      H    0.82823   0.47985   0.56535   1.000
    H6      H    0.42957   0.66653   0.60358   1.000
    H7      H    0.92957   0.66653   0.60358   1.000
    H8      H    0.19292   0.38310   0.52805   1.000
    H9      H    0.69292   0.38310   0.52805   1.000
    H10     H    0.24727   0.30115   0.56162   1.000
    H11     H    0.74727   0.30115   0.56162   1.000
    H12     H    0.41303   0.81549   0.83322   1.000
    H13     H    0.91303   0.81549   0.83322   1.000
    H14     H    0.47697   0.74009   0.80941   1.000
    H15     H    0.97697   0.74009   0.80941   1.000
    H16     H    0.19546   0.86967   0.48155   1.000
    H17     H    0.69546   0.86967   0.48150   1.000
    H18     H    0.10735   0.79684   0.42534   1.000
    H19     H    0.60735   0.79684   0.42534   1.000
    H20     H    0.11797   0.53118   0.58667   1.000
    H21     H    0.61797   0.53118   0.58667   1.000
    H22     H    0.99202   0.65925   0.42540   1.000
    H23     H    0.49202   0.65925   0.42540   1.000
    H24     H    0.46075   0.34823   0.30400   1.000
    H25     H    0.96075   0.34823   0.30400   1.000
    H26     H    0.06422   0.53692   0.26611   1.000
    H27     H    0.56422   0.53692   0.26611   1.000
    H28     H    0.42178   0.52011   0.06535   1.000
    H29     H    0.92178   0.52011   0.06535   1.000
    H30     H    0.32044   0.33344   0.10358   1.000
    H31     H    0.82044   0.33344   0.10358   1.000
    H32     H    0.05708   0.61686   0.02804   1.000
    H33     H    0.55708   0.61686   0.02800   1.000
    H34     H    0.00274   0.69882   0.06162   1.000
    H35     H    0.50273   0.69882   0.06162   1.000
    H36     H    0.33698   0.18448   0.33321   1.000
    H37     H    0.83698   0.18448   0.33321   1.000
    H38     H    0.27305   0.25988   0.30942   1.000
    H39     H    0.77305   0.25988   0.30942   1.000
    H40     H    0.05456   0.13031   0.98150   1.000
    H41     H    0.55456   0.13031   0.98156   1.000
    H42     H    0.14268   0.20313   0.92535   1.000
    H43     H    0.64268   0.20313   0.92535   1.000
    H44     H    0.13204   0.46881   0.08666   1.000
    H45     H    0.63204   0.46881   0.08666   1.000
    H46     H    0.25800   0.34072   0.92541   1.000
    H47     H    0.75800   0.34073   0.92541   1.000
    H48     H    0.21075   0.34820   0.19570   1.000
    H49     H    0.71075   0.34820   0.19570   1.000
    H50     H    0.31422   0.53690   0.23388   1.000
    H51     H    0.81422   0.53690   0.23388   1.000
    H52     H    0.17178   0.52011   0.43465   1.000
    H53     H    0.67178   0.52011   0.43465   1.000
    H54     H    0.07043   0.33344   0.39642   1.000
    H55     H    0.57043   0.33344   0.39642   1.000
    H56     H    0.30709   0.61686   0.47196   1.000
    H57     H    0.80709   0.61686   0.47196   1.000
    H58     H    0.25274   0.69881   0.43838   1.000
    H59     H    0.75274   0.69881   0.43838   1.000
    H60     H    0.08697   0.18447   0.16678   1.000
    H61     H    0.58697   0.18447   0.16678   1.000
    H62     H    0.02303   0.25987   0.19059   1.000
    H63     H    0.52303   0.25987   0.19059   1.000
    H64     H    0.30455   0.13031   0.51845   1.000
    H65     H    0.80455   0.13031   0.51845   1.000
    H66     H    0.39267   0.20314   0.57460   1.000
    H67     H    0.89267   0.20314   0.57460   1.000
    H68     H    0.38205   0.46881   0.41330   1.000
    H69     H    0.88205   0.46881   0.41330   1.000
    H70     H    0.50800   0.34073   0.57460   1.000
    H71     H    0.00000   0.34073   0.57460   1.000
    H72     H    0.03925   0.65173   0.69571   1.000
    H73     H    0.53925   0.65173   0.69571   1.000
    H74     H    0.43579   0.46303   0.73389   1.000
    H75     H    0.93579   0.46303   0.73389   1.000
    H76     H    0.07823   0.47985   0.93460   1.000
    H77     H    0.57823   0.47985   0.93460   1.000
    H78     H    0.17957   0.66652   0.89643   1.000
    H79     H    0.67957   0.66652   0.89643   1.000
    H80     H    0.44292   0.38310   0.97196   1.000
    H81     H    0.94292   0.38310   0.97196   1.000
    H82     H    0.49727   0.30114   0.93839   1.000
    H83     H    0.99727   0.30114   0.93839   1.000
    H84     H    0.16302   0.81548   0.66679   1.000
    H85     H    0.66302   0.81548   0.66679   1.000
    H86     H    0.22695   0.74008   0.69058   1.000
    H87     H    0.72695   0.74008   0.69058   1.000
    H88     H    0.44546   0.86968   0.01844   1.000
    H89     H    0.94546   0.86968   0.01840   1.000
    H90     H    0.35734   0.79686   0.07465   1.000
    H91     H    0.85734   0.79686   0.07465   1.000
    C92     C    0.98944   0.50790   0.76929   1.000
    C93     C    0.49819   0.45957   0.83700   1.000
    C94     C    0.99819   0.45957   0.83759   1.000
    C95     C    0.06761   0.51648   0.88287   1.000
    H96     H    0.36797   0.53117   0.91334   1.000
    H97     H    0.86797   0.53117   0.91334   1.000
    H98     H    0.24201   0.65926   0.07459   1.000
    H99     H    0.74201   0.65926   0.07459   1.000
    C100    C    0.36454   0.67191   0.70468   1.000
    C101    C    0.86454   0.67191   0.70468   1.000
    C102    C    0.29748   0.61390   0.75195   1.000
    C103    C    0.79748   0.61390   0.75195   1.000
    C104    C    0.23945   0.50792   0.73073   1.000
    C105    C    0.73945   0.50792   0.73073   1.000
    C106    C    0.24819   0.45958   0.66242   1.000
    C107    C    0.74819   0.45958   0.66242   1.000
    C108    C    0.31761   0.51649   0.61714   1.000
    C109    C    0.81761   0.51649   0.61714   1.000
    C110    C    0.37566   0.62228   0.63862   1.000
    C111    C    0.87566   0.62228   0.63862   1.000
    C112    C    0.19068   0.31880   0.56970   1.000
    C113    C    0.69068   0.31880   0.56970   1.000
    C114    C    0.45757   0.80812   0.79189   1.000
    C115    C    0.95757   0.80812   0.79189   1.000
    C116    C    0.13004   0.80960   0.48348   1.000
    C117    C    0.63004   0.80960   0.48348   1.000
    O118    O    0.07994   0.21638   0.28174   1.000
    C119    C    0.06354   0.60834   0.50723   1.000
    C120    C    0.56354   0.60834   0.50723   1.000
    C121    C    0.06616   0.51706   0.54844   1.000
    C122    C    0.56616   0.51706   0.54844   1.000
    C123    C    0.99656   0.59088   0.45869   1.000
    C124    C    0.49656   0.59088   0.45869   1.000
    C125    C    0.38546   0.32806   0.20467   1.000
    C126    C    0.88546   0.32806   0.20467   1.000
    C127    C    0.45253   0.38608   0.25194   1.000
    C128    C    0.95253   0.38608   0.25194   1.000
    C129    C    0.01056   0.49205   0.23070   1.000
    C130    C    0.51056   0.49205   0.23070   1.000
    C131    C    0.00182   0.54039   0.16241   1.000
    C132    C    0.50182   0.54039   0.16241   1.000
    C133    C    0.43240   0.48348   0.11713   1.000
    C134    C    0.93239   0.48348   0.11713   1.000
    C135    C    0.37435   0.37769   0.13861   1.000
    C136    C    0.87435   0.37769   0.13861   1.000
    C137    C    0.05932   0.68117   0.06976   1.000
    C138    C    0.55932   0.68117   0.06976   1.000
    C139    C    0.29245   0.19185   0.29189   1.000
    C140    C    0.79244   0.19185   0.29189   1.000
    C141    C    0.11998   0.19038   0.98349   1.000
    C142    C    0.61998   0.19038   0.98349   1.000
    C143    C    0.18648   0.39164   0.00722   1.000
    C144    C    0.68648   0.39164   0.00722   1.000
    C145    C    0.18386   0.48292   0.04840   1.000
    C146    C    0.68386   0.48292   0.04840   1.000
    C147    C    0.25346   0.40910   0.95870   1.000
    C148    C    0.75346   0.40910   0.95870   1.000
    C149    C    0.13546   0.32805   0.29530   1.000
    C150    C    0.63546   0.32805   0.29530   1.000
    C151    C    0.20252   0.38606   0.24805   1.000
    C152    C    0.70252   0.38606   0.24805   1.000
    C153    C    0.26056   0.49203   0.26928   1.000
    C154    C    0.76056   0.49203   0.26928   1.000
    C155    C    0.25182   0.54037   0.33759   1.000
    C156    C    0.75182   0.54037   0.33759   1.000
    C157    C    0.18239   0.48347   0.38287   1.000
    C158    C    0.68239   0.48347   0.38287   1.000
    C159    C    0.12435   0.37768   0.36130   1.000
    C160    C    0.62434   0.37768   0.36130   1.000
    C161    C    0.30932   0.68116   0.43024   1.000
    C162    C    0.80932   0.68116   0.43024   1.000
    C163    C    0.04244   0.19184   0.20811   1.000
    C164    C    0.54243   0.19184   0.20811   1.000
    C165    C    0.36997   0.19038   0.51650   1.000
    C166    C    0.86997   0.19038   0.51650   1.000
    C167    C    0.43648   0.39164   0.49278   1.000
    C168    C    0.93648   0.39164   0.49278   1.000
    C169    C    0.43386   0.48292   0.45156   1.000
    C170    C    0.93385   0.48292   0.45156   1.000
    C171    C    0.50346   0.40910   0.54130   1.000
    C172    C    0.00000   0.40910   0.54130   1.000
    C173    C    0.11454   0.67190   0.79533   1.000
    C174    C    0.61454   0.67190   0.79533   1.000
    C175    C    0.04748   0.61388   0.74806   1.000
    C176    C    0.54748   0.61388   0.74806   1.000
    C177    C    0.48945   0.50790   0.76929   1.000
    C178    C    0.56761   0.51648   0.88287   1.000
    C179    C    0.12565   0.62227   0.86139   1.000
    C180    C    0.62565   0.62227   0.86139   1.000
    C181    C    0.44069   0.31879   0.93025   1.000
    C182    C    0.94068   0.31879   0.93020   1.000
    C183    C    0.20756   0.80811   0.70810   1.000
    C184    C    0.70756   0.80811   0.70810   1.000
    C185    C    0.38004   0.80961   0.01651   1.000
    C186    C    0.88004   0.80961   0.01651   1.000
    C187    C    0.31353   0.60834   0.99279   1.000
    C188    C    0.81354   0.60834   0.99279   1.000
    C189    C    0.31616   0.51706   0.95157   1.000
    C190    C    0.81616   0.51706   0.95157   1.000
    C191    C    0.24655   0.59088   0.04130   1.000
    C192    C    0.74655   0.59088   0.04130   1.000
    O193    O    0.42005   0.78358   0.71820   1.000
    O194    O    0.92005   0.78358   0.71826   1.000
    O195    O    0.13144   0.70960   0.51654   1.000
    O196    O    0.63144   0.70960   0.51654   1.000
    O197    O    0.18624   0.35747   0.64379   1.000
    O198    O    0.68624   0.35747   0.64379   1.000
    O199    O    0.32995   0.21639   0.21826   1.000
    O200    O    0.82995   0.21639   0.21826   1.000
    O201    O    0.11858   0.29038   0.01654   1.000
    O202    O    0.61858   0.29038   0.01650   1.000
    O203    O    0.06377   0.64250   0.14370   1.000
    O204    O    0.56377   0.64250   0.14370   1.000
    O205    O    0.57994   0.21638   0.28174   1.000
    O206    O    0.36858   0.29039   0.48347   1.000
    O207    O    0.86857   0.29039   0.48347   1.000
    O208    O    0.31377   0.64248   0.35622   1.000
    O209    O    0.81377   0.64248   0.35622   1.000
    O210    O    0.17006   0.78356   0.78174   1.000
    O211    O    0.67005   0.78356   0.78174   1.000
    O212    O    0.38144   0.70960   0.98347   1.000
    O213    O    0.88144   0.70960   0.98347   1.000
    O214    O    0.43624   0.35745   0.85620   1.000
    O215    O    0.93624   0.35745   0.85620   1.000
loop_
    _geom_bond_atom_site_label_1
    _geom_bond_atom_site_label_2
    _geom_bond_distance
    _geom_bond_site_symmetry_2
    _ccdc_geom_bond_type
    C144   O202      1.38551      .   S
    C144   C146      1.39985      .   S
    C144   C148      1.40070  1_554   S
    C143   O201      1.38559      .   S
    C143   C145      1.39985      .   S
    C143   C147      1.40068  1_554   S
    O202   C142      1.42203  1_554   S
    C185   H88       1.10056      .   S
    C185   H90       1.10133      .   S
    C185   O212      1.42229  1_554   S
    C186   H89       1.10054      .   S
    C186   H91       1.10133      .   S
    C186   O213      1.42229  1_554   S
    O201   C141      1.42232  1_554   S
    H33    C138      1.10247      .   S
    H32    C137      1.10198      .   S
    C191   C145      1.39699      .   S
    C191   H98       1.08878      .   S
    C191   C187      1.40059  1_554   S
    C192   C146      1.39699      .   S
    C192   H99       1.08877      .   S
    C192   C188      1.40060  1_554   S
    C146   H45       1.09035      .   S
    C145   H44       1.09035      .   S
    H34    C137      1.10457      .   S
    H35    C138      1.10457      .   S
    H29    C134      1.08634      .   S
    H28    C133      1.08634      .   S
    C138   O204      1.42462      .   S
    C137   O203      1.42462      .   S
    H30    C135      1.08724      .   S
    H31    C136      1.08724      .   S
    C134   C136      1.39470      .   S
    C134   C131      1.40166  1_655   S
    C133   C135      1.39471      .   S
    C133   C132      1.40164      .   S
    C136   C126      1.39082      .   S
    C135   C125      1.39082      .   S
    O203   C131      1.37609      .   S
    O204   C132      1.37609      .   S
    C132   C130      1.40439      .   S
    C131   C129      1.40439      .   S
    H61    C164      1.10219      .   S
    H60    C163      1.10219      .   S
    H63    C164      1.09814      .   S
    H62    C163      1.09815      .   S
    H48    C151      1.08936      .   S
    H49    C152      1.08936      .   S
    C125   O199      1.40360      .   S
    C125   C127      1.39894      .   S
    C126   O200      1.40359      .   S
    C126   C128      1.39894      .   S
    C163   O118      1.44862      .   S
    C164   O205      1.44862      .   S
    O199   C139      1.44857      .   S
    O200   C140      1.44857      .   S
    C130   C127      1.39513      .   S
    C130   H27       1.08976      .   S
    C129   C128      1.39514  1_455   S
    C129   H26       1.08975      .   S
    H51    C154      1.08963      .   S
    H50    C153      1.08963      .   S
    C152   C154      1.39508      .   S
    C152   C150      1.39870      .   S
    C151   C153      1.39509      .   S
    C151   C149      1.39870      .   S
    C128   H25       1.08493      .   S
    C127   H24       1.08492      .   S
    C154   C156      1.40467      .   S
    C153   C155      1.40467      .   S
    O205   C150      1.40351      .   S
    O118   C149      1.40350      .   S
    C140   H39       1.09815      .   S
    C140   H37       1.10216      .   S
    C139   H38       1.09814      .   S
    C139   H36       1.10216      .   S
    C150   C160      1.38988      .   S
    C149   C159      1.38988      .   S
    C155   O208      1.37574      .   S
    C155   C157      1.40161      .   S
    C156   O209      1.37574      .   S
    C156   C158      1.40162      .   S
    O209   C162      1.42595      .   S
    O208   C161      1.42595      .   S
    C160   C158      1.39515      .   S
    C160   H55       1.08815      .   S
    C159   C157      1.39515      .   S
    C159   H54       1.08817      .   S
    C158   H53       1.08631      .   S
    C157   H52       1.08632      .   S
    H68    C169      1.09035      .   S
    H69    C170      1.09035      .   S
    H18    C116      1.10132      .   S
    H19    C117      1.10132      .   S
    H22    C123      1.08875      .   S
    H23    C124      1.08876      .   S
    C161   H58       1.10456      .   S
    C161   H56       1.10197      .   S
    C162   H59       1.10454      .   S
    C162   H57       1.10197      .   S
    C169   C124      1.39705      .   S
    C169   C167      1.40021      .   S
    C170   C123      1.39706      .   S
    C170   C168      1.40022      .   S
    C124   C120      1.40096      .   S
    C123   C119      1.40097  1_655   S
    H17    C117      1.10058      .   S
    H16    C116      1.10057      .   S
    O207   C168      1.38557      .   S
    O207   C166      1.42223      .   S
    O206   C167      1.38558      .   S
    O206   C165      1.42223      .   S
    C117   O196      1.42244      .   S
    C116   O195      1.42244      .   S
    C167   C171      1.40072      .   S
    C168   C172      1.35478  1_655   S
    C120   O196      1.38558      .   S
    C120   C122      1.40011      .   S
    C119   O195      1.38558      .   S
    C119   C121      1.40011      .   S
    C166   H65       1.10056      .   S
    C166   H67       1.10067      .   S
    C165   H64       1.10058      .   S
    C165   H66       1.10067      .   S
    H8     C112      1.10120      .   S
    H9     C113      1.10119      .   S
    C171   C122      1.39707      .   S
    C171   H70       1.08886      .   S
    C172   C121      1.42201      .   S
    C172   H71       1.06075      .   S
    C122   H21       1.09001      .   S
    C121   H20       1.09000      .   S
    H10    C112      1.10439      .   S
    H11    C113      1.10440      .   S
    H4     C108      1.08646      .   S
    H5     C109      1.08646      .   S
    C112   O197      1.42705      .   S
    C113   O198      1.42705      .   S
    H7     C111      1.08731      .   S
    H6     C110      1.08733      .   S
    C109   C111      1.39471      .   S
    C109   C107      1.40160      .   S
    C108   C110      1.39471      .   S
    C108   C106      1.40160      .   S
    C111   C101      1.39079      .   S
    C110   C100      1.39079      .   S
    O197   C106      1.37575      .   S
    O198   C107      1.37576      .   S
    C106   C104      1.40468      .   S
    C107   C105      1.40468      .   S
    H85    C184      1.10204      .   S
    H84    C183      1.10204      .   S
    H86    C183      1.09809      .   S
    H87    C184      1.09810      .   S
    H73    C176      1.08939      .   S
    H72    C175      1.08938      .   S
    C101   O194      1.40356      .   S
    C101   C103      1.39892      .   S
    C100   O193      1.40337      .   S
    C100   C102      1.39892      .   S
    C183   O210      1.44873      .   S
    C184   O211      1.44873      .   S
    O193   C114      1.44964      .   S
    O194   C115      1.44866      .   S
    C104   C102      1.39504      .   S
    C104   H2        1.08952      .   S
    C105   C103      1.39504      .   S
    C105   H3        1.08952      .   S
    H75    C92       1.08965      .   S
    H74    C177      1.08966      .   S
    C175   C92       1.39509  1_455   S
    C175   C173      1.39895      .   S
    C176   C177      1.39508      .   S
    C176   C174      1.39895      .   S
    C102   H0        1.08937      .   S
    C103   H1        1.08937      .   S
    C92    C94       1.40455      .   S
    C177   C93       1.39540      .   S
    O211   C174      1.40358      .   S
    O210   C173      1.40358      .   S
    C114   H14       1.09815      .   S
    C114   H12       1.10216      .   S
    C115   H15       1.09815      .   S
    C115   H13       1.10216      .   S
    C173   C179      1.39080      .   S
    C174   C180      1.39081      .   S
    C93    O214      1.37825      .   S
    C93    C178      1.40775      .   S
    C94    O215      1.37567      .   S
    C94    C95       1.40164  1_655   S
    O215   C182      1.42556      .   S
    O214   C181      1.42639      .   S
    C180   C178      1.39471      .   S
    C180   H79       1.08733      .   S
    C179   C95       1.39471      .   S
    C179   H78       1.08735      .   S
    C178   H77       1.08558      .   S
    C95    H76       1.08557      .   S
    H96    C189      1.09000      .   S
    H97    C190      1.09001      .   S
    H42    C141      1.10134      .   S
    H43    C142      1.10134      .   S
    H47    C148      1.08877      .   S
    H46    C147      1.08877      .   S
    C182   H83       1.10467      .   S
    C182   H81       1.10251      .   S
    C181   H82       1.10454      .   S
    C181   H80       1.10190      .   S
    C190   C148      1.39704      .   S
    C190   C188      1.40021      .   S
    C189   C147      1.39704      .   S
    C189   C187      1.40023      .   S
    H40    C141      1.10059      .   S
    H41    C142      1.10055      .   S
    O213   C188      1.38560      .   S
    O212   C187      1.38560      .   S
