# CIF file generated by openbabel 2.4.90, see http://openbabel.sf.net
data_I
_chemical_name_common ''
_cell_length_a 17.434
_cell_length_b 12.841
_cell_length_c 17.875
_cell_angle_alpha 90.002
_cell_angle_beta 89.998
_cell_angle_gamma 112.94
_space_group_name_H-M_alt 'P 1'
_space_group_name_Hall 'P 1'
loop_
    _symmetry_equiv_pos_as_xyz
    x,y,z
loop_
    _atom_site_label
    _atom_site_type_symbol
    _atom_site_fract_x
    _atom_site_fract_y
    _atom_site_fract_z
    _atom_site_occupancy
    Zr0     Zr   0.46695   0.95406   0.61103   1.000
    Zr1     Zr   0.96695   0.95406   0.61103   1.000
    Zr2     Zr   0.28305   0.04591   0.11100   1.000
    Zr3     Zr   0.78305   0.04591   0.11102   1.000
    Zr4     Zr   0.03305   0.04591   0.38897   1.000
    Zr5     Zr   0.53304   0.04591   0.38897   1.000
    Zr6     Zr   0.21696   0.95405   0.88898   1.000
    Zr7     Zr   0.71696   0.95405   0.88898   1.000
    N8      N    0.31447   0.56450   0.68338   1.000
    O9      O    0.37899   0.71666   0.67400   1.000
    N10     N    0.06447   0.56449   0.81662   1.000
    O11     O    0.12899   0.71665   0.82599   1.000
    N12     N    0.56447   0.56449   0.81659   1.000
    O13     O    0.62899   0.71665   0.82597   1.000
    N14     N    0.25001   0.49999   1.00000   1.000
    N15     N    0.18553   0.43545   0.31661   1.000
    O16     O    0.12101   0.28330   0.32598   1.000
    N17     N    0.50001   0.49999   0.49999   1.000
    N18     N    0.93554   0.43547   0.18336   1.000
    O19     O    0.87102   0.28331   0.17400   1.000
    N20     N    0.81447   0.56450   0.68338   1.000
    O21     O    0.87899   0.71666   0.67401   1.000
    N22     N    0.75001   0.49999   0.99999   1.000
    N23     N    0.68553   0.43545   0.31661   1.000
    O24     O    0.62101   0.28330   0.32598   1.000
    N25     N    0.99937   0.49999   0.49999   1.000
    N26     N    0.43554   0.43547   0.18335   1.000
    O27     O    0.37102   0.28331   0.17399   1.000
    C28     C    0.15080   0.81687   0.04477   1.000
    O29     O    0.08333   0.70114   0.08331   1.000
    O30     O    0.16455   0.84993   0.98993   1.000
    O31     O    0.19109   0.88219   0.07569   1.000
    C32     C    0.30234   0.94857   0.71280   1.000
    O33     O    0.22859   0.83137   0.73811   1.000
    O34     O    0.27800   0.95855   0.77072   1.000
    O35     O    0.35135   0.94857   0.67359   1.000
    C36     C    0.19767   0.05139   0.28716   1.000
    O37     O    0.27142   0.16859   0.26186   1.000
    O38     O    0.22201   0.04141   0.22925   1.000
    O39     O    0.14865   0.05139   0.32637   1.000
    C40     C    0.09920   0.18310   0.54478   1.000
    O41     O    0.16667   0.29883   0.58331   1.000
    O42     O    0.05891   0.11778   0.57571   1.000
    O43     O    0.08545   0.15003   0.48994   1.000
    C44     C    0.06969   0.88209   0.53989   1.000
    O45     O    0.06117   0.77540   0.52143   1.000
    O46     O    0.06126   0.94019   0.49179   1.000
    C47     C    0.18032   0.11789   0.03989   1.000
    O48     O    0.18874   0.05977   0.99179   1.000
    O49     O    0.18868   0.22457   0.02143   1.000
    C50     C    0.56968   0.88209   0.53989   1.000
    O51     O    0.56126   0.94019   0.49179   1.000
    O52     O    0.56133   0.77540   0.52143   1.000
    C53     C    0.44766   0.05137   0.21279   1.000
    O54     O    0.47200   0.04140   0.27071   1.000
    O55     O    0.52141   0.16857   0.23811   1.000
    O56     O    0.39864   0.05138   0.17358   1.000
    C57     C    0.65080   0.81687   0.04477   1.000
    O58     O    0.66455   0.84993   0.98993   1.000
    O59     O    0.69109   0.88219   0.07570   1.000
    O60     O    0.58333   0.70114   0.08331   1.000
    C61     C    0.68032   0.11789   0.03989   1.000
    O62     O    0.68874   0.05977   0.99180   1.000
    O63     O    0.68868   0.22457   0.02143   1.000
    C64     C    0.55234   0.94859   0.78720   1.000
    O65     O    0.60136   0.94859   0.82641   1.000
    O66     O    0.52800   0.95857   0.72928   1.000
    O67     O    0.47859   0.83139   0.76189   1.000
    C68     C    0.43032   0.11789   0.46011   1.000
    O69     O    0.43868   0.22457   0.47856   1.000
    O70     O    0.43874   0.05977   0.50821   1.000
    C71     C    0.84920   0.18309   0.95523   1.000
    O72     O    0.91667   0.29882   0.91668   1.000
    O73     O    0.83545   0.15002   0.01007   1.000
    O74     O    0.80891   0.11777   0.92430   1.000
    C75     C    0.40080   0.81687   0.45522   1.000
    O76     O    0.33333   0.70113   0.41668   1.000
    O77     O    0.44109   0.88218   0.42429   1.000
    O78     O    0.41455   0.84993   0.51006   1.000
    C79     C    0.05234   0.94859   0.78720   1.000
    O80     O    0.10136   0.94859   0.82641   1.000
    O81     O    0.02800   0.95857   0.72928   1.000
    O82     O    0.97859   0.83139   0.76189   1.000
    C83     C    0.94766   0.05137   0.21279   1.000
    O84     O    0.97200   0.04140   0.27071   1.000
    O85     O    0.02141   0.16857   0.23811   1.000
    O86     O    0.89864   0.05138   0.17358   1.000
    C87     C    0.80233   0.94857   0.71279   1.000
    O88     O    0.72859   0.83137   0.73810   1.000
    O89     O    0.85135   0.94857   0.67358   1.000
    O90     O    0.77800   0.95855   0.77072   1.000
    C91     C    0.90080   0.81686   0.45522   1.000
    O92     O    0.83333   0.70113   0.41668   1.000
    O93     O    0.94109   0.88218   0.42429   1.000
    O94     O    0.91455   0.84993   0.51006   1.000
    C95     C    0.31968   0.88208   0.96009   1.000
    O96     O    0.31133   0.77540   0.97856   1.000
    O97     O    0.31126   0.94019   0.00819   1.000
    C98     C    0.69767   0.05139   0.28719   1.000
    O99     O    0.72200   0.04141   0.22927   1.000
    O100    O    0.77141   0.16859   0.26187   1.000
    O101    O    0.64865   0.05139   0.32641   1.000
    C102    C    0.34920   0.18309   0.95523   1.000
    O103    O    0.41667   0.29882   0.91668   1.000
    O104    O    0.33545   0.15003   0.01006   1.000
    O105    O    0.30891   0.11777   0.92430   1.000
    C106    C    0.93032   0.11789   0.46011   1.000
    O107    O    0.93874   0.05977   0.50821   1.000
    O108    O    0.93852   0.22457   0.47857   1.000
    C109    C    0.59920   0.18310   0.54478   1.000
    O110    O    0.58545   0.15003   0.48994   1.000
    O111    O    0.66667   0.29882   0.58331   1.000
    O112    O    0.55891   0.11778   0.57571   1.000
    C113    C    0.81968   0.88208   0.96010   1.000
    O114    O    0.81133   0.77540   0.97856   1.000
    O115    O    0.81126   0.94020   0.00820   1.000
    O116    O    0.70753   0.09779   0.05911   1.000
    O117    O    0.04248   0.90218   0.55911   1.000
    O118    O    0.20753   0.09779   0.05910   1.000
    O119    O    0.54248   0.90218   0.55911   1.000
    O120    O    0.29248   0.90217   0.94088   1.000
    O121    O    0.95752   0.09779   0.44088   1.000
    O122    O    0.45752   0.09779   0.44088   1.000
    O123    O    0.79248   0.90217   0.94088   1.000
loop_
    _geom_bond_atom_site_label_1
    _geom_bond_atom_site_label_2
    _geom_bond_distance
    _geom_bond_site_symmetry_2
    _ccdc_geom_bond_type
    N8     O9        1.84328      .   S
    Zr0    O9        3.04422      .   S
    N10    O11       1.84328      .   S
    Zr6    O11       3.04442      .   S
    N12    O13       1.84330      .   S
    Zr7    O13       3.04452      .   S
    N15    O16       1.84325      .   S
    Zr4    O16       3.04431      .   S
    N18    O19       1.84325      .   S
    Zr3    O19       3.04431      .   S
    N20    O21       1.84326      .   S
    Zr1    O21       3.04433      .   S
    N23    O24       1.84325      .   S
    Zr5    O24       3.04430      .   S
    N26    O27       1.84326      .   S
    Zr2    O27       3.04440      .   S
    C28    O29       1.64432      .   S
    N18    O29       3.82409  1_655   S
    C28    O30       1.05797  1_554   S
    Zr6    O30       2.21958      .   S
    C28    O31       1.02135      .   S
    Zr2    O31       2.18193  1_545   S
    C32    O33       1.61689      .   S
    N10    O33       3.77583      .   S
    C32    O34       1.14492      .   S
    Zr6    O34       2.35718      .   S
    C32    O35       1.10521      .   S
    Zr0    O35       2.28171      .   S
    C36    O37       1.61685      .   S
    N26    O37       3.77578      .   S
    C36    O38       1.14469      .   S
    Zr2    O38       2.35711      .   S
    C36    O39       1.10523      .   S
    Zr4    O39       2.28208      .   S
    C40    O41       1.64430      .   S
    N8     O41       3.82428      .   S
    C40    O42       1.02140      .   S
    Zr1    O42       2.18200  1_665   S
    C40    O43       1.05809      .   S
    Zr4    O43       2.21974      .   S
    C44    O45       1.35983      .   S
    N25    O45       3.29311  1_655   S
    C44    O46       1.18451      .   S
    Zr4    O46       2.44605  1_545   S
    C47    O48       1.18445  1_554   S
    Zr6    O48       2.44588  1_565   S
    C47    O49       1.36065      .   S
    N14    O49       3.29397  1_556   S
    C50    O51       1.18451      .   S
    Zr5    O51       2.44605  1_545   S
    C50    O52       1.36063      .   S
    N17    O52       3.29388      .   S
    C53    O54       1.14494      .   S
    Zr5    O54       2.35722      .   S
    C53    O55       1.61691      .   S
    N23    O55       3.77585      .   S
    C53    O56       1.10532      .   S
    Zr2    O56       2.28192      .   S
    C57    O58       1.05797  1_554   S
    Zr7    O58       2.21959      .   S
    C57    O59       1.02139      .   S
    Zr3    O59       2.18201  1_545   S
    C57    O60       1.64431      .   S
    N26    O60       3.82407      .   S
    C61    O62       1.18443  1_554   S
    Zr7    O62       2.44599  1_565   S
    C61    O63       1.36067      .   S
    N22    O63       3.29398  1_556   S
    C64    O65       1.10530      .   S
    Zr7    O65       2.28183      .   S
    C64    O66       1.14491      .   S
    Zr0    O66       2.35717      .   S
    C64    O67       1.61692      .   S
    N8     O67       3.77589      .   S
    C68    O69       1.36062      .   S
    N17    O69       3.29392      .   S
    C68    O70       1.18453      .   S
    Zr0    O70       2.44612  1_565   S
    C71    O72       1.64442      .   S
    N10    O72       3.82423  1_455   S
    C71    O73       1.05797  1_556   S
    Zr3    O73       2.21956      .   S
    C71    O74       1.02137      .   S
    Zr7    O74       2.18200  1_565   S
    C75    O76       1.64438      .   S
    N15    O76       3.82428      .   S
    C75    O77       1.02140      .   S
    Zr5    O77       2.18201  1_545   S
    C75    O78       1.05809      .   S
    Zr0    O78       2.21976      .   S
    C79    O80       1.10530      .   S
    Zr6    O80       2.28182      .   S
    C79    O81       1.14491      .   S
    Zr1    O81       2.35718  1_655   S
    C79    O82       1.61692  1_455   S
    N20    O82       3.77588      .   S
    C83    O84       1.14495      .   S
    Zr4    O84       2.35723  1_455   S
    C83    O85       1.61691  1_655   S
    N15    O85       3.77586      .   S
    C83    O86       1.10526      .   S
    Zr3    O86       2.28179      .   S
    C87    O88       1.61687      .   S
    N12    O88       3.77570      .   S
    C87    O89       1.10523      .   S
    Zr1    O89       2.28164      .   S
    C87    O90       1.14498      .   S
    Zr7    O90       2.35723      .   S
    C91    O92       1.64438      .   S
    N23    O92       3.82428      .   S
    C91    O93       1.02141      .   S
    Zr4    O93       2.18202  1_445   S
    C91    O94       1.05810      .   S
    Zr1    O94       2.21976      .   S
    C95    O96       1.36063      .   S
    N14    O96       3.29387      .   S
    C95    O97       1.18441  1_556   S
    Zr2    O97       2.44587  1_545   S
    C98    O99       1.14482      .   S
    Zr3    O99       2.35708      .   S
    C98    O100      1.61691      .   S
    N18    O100      3.77587      .   S
    C98    O101      1.10530      .   S
    Zr5    O101      2.28179      .   S
    C102   O103      1.64442      .   S
    N12    O103      3.82446      .   S
    C102   O104      1.05789  1_556   S
    Zr2    O104      2.21934      .   S
    C102   O105      1.02138      .   S
    Zr6    O105      2.18200  1_565   S
    C106   O107      1.18453      .   S
    Zr1    O107      2.44612  1_565   S
    C106   O108      1.36142      .   S
    N25    O108      3.29472      .   S
    C109   O110      1.05809      .   S
    Zr5    O110      2.21974      .   S
    C109   O111      1.64431      .   S
    N20    O111      3.82430      .   S
    C109   O112      1.02140      .   S
    Zr0    O112      2.18199  1_565   S
    C113   O114      1.36061      .   S
    N22    O114      3.29386      .   S
    C113   O115      1.18444  1_556   S
    Zr3    O115      2.44603  1_545   S
    Zr3    O116      1.92929      .   S
    C61    O116      0.71059      .   S
    C44    O117      0.71061      .   S
    Zr1    O117      1.92938  1_655   S
    C47    O118      0.71055      .   S
    Zr2    O118      1.92922      .   S
    C50    O119      0.71061      .   S
    Zr0    O119      1.92936      .   S
    C95    O120      0.71057      .   S
    Zr6    O120      1.92919      .   S
    C106   O121      0.71060      .   S
    Zr4    O121      1.92934  1_455   S
    C68    O122      0.71060      .   S
    Zr5    O122      1.92932      .   S
    C113   O123      0.71058      .   S
    Zr7    O123      1.92924      .   S
