# CIF file generated by openbabel 2.4.90, see http://openbabel.sf.net
data_I
_chemical_name_common ''
_cell_length_a 17.434
_cell_length_b 12.841
_cell_length_c 17.875
_cell_angle_alpha 90.002
_cell_angle_beta 89.998
_cell_angle_gamma 112.94
_space_group_name_H-M_alt 'P 1'
_space_group_name_Hall 'P 1'
loop_
    _symmetry_equiv_pos_as_xyz
    x,y,z
loop_
    _atom_site_label
    _atom_site_type_symbol
    _atom_site_fract_x
    _atom_site_fract_y
    _atom_site_fract_z
    _atom_site_occupancy
    Zr0     Zr   0.46695   0.95406   0.61103   1.000
    Zr1     Zr   0.96695   0.95406   0.61103   1.000
    Zr2     Zr   0.28305   0.04591   0.11100   1.000
    Zr3     Zr   0.78305   0.04591   0.11102   1.000
    Zr4     Zr   0.03305   0.04591   0.38897   1.000
    Zr5     Zr   0.53304   0.04591   0.38897   1.000
    Zr6     Zr   0.21696   0.95405   0.88898   1.000
    Zr7     Zr   0.71696   0.95405   0.88898   1.000
    Zr8     Zr   0.11696   0.21041   0.55089   1.000
    Zr9     Zr   0.61696   0.21041   0.55089   1.000
    Zr10    Zr   0.03286   0.91964   0.78764   1.000
    Zr11    Zr   0.53286   0.91964   0.78764   1.000
    Zr12    Zr   0.08187   0.86530   0.52839   1.000
    Zr13    Zr   0.58187   0.86530   0.52839   1.000
    Zr14    Zr   0.13304   0.78955   0.05088   1.000
    Zr15    Zr   0.63304   0.78955   0.05088   1.000
    Zr16    Zr   0.21715   0.08034   0.28760   1.000
    Zr17    Zr   0.71714   0.08034   0.28760   1.000
    Zr18    Zr   0.16814   0.13468   0.02839   1.000
    Zr19    Zr   0.66814   0.13468   0.02839   1.000
    Zr20    Zr   0.38304   0.78955   0.44911   1.000
    Zr21    Zr   0.88304   0.78955   0.44911   1.000
    Zr22    Zr   0.46714   0.08033   0.21235   1.000
    Zr23    Zr   0.96714   0.08033   0.21235   1.000
    Zr24    Zr   0.41814   0.13468   0.47161   1.000
    Zr25    Zr   0.91814   0.13468   0.47161   1.000
    Zr26    Zr   0.36696   0.21040   0.94912   1.000
    Zr27    Zr   0.86696   0.21040   0.94912   1.000
    Zr28    Zr   0.28286   0.91962   0.71236   1.000
    Zr29    Zr   0.78285   0.91962   0.71236   1.000
    Zr30    Zr   0.33186   0.86529   0.97161   1.000
    Zr31    Zr   0.83186   0.86529   0.97161   1.000
    Zr32    Zr   0.07263   0.95070   0.49840   1.000
    Zr33    Zr   0.57263   0.95070   0.49840   1.000
    Zr34    Zr   0.05455   0.83027   0.59288   1.000
    Zr35    Zr   0.55455   0.83027   0.59288   1.000
    Zr36    Zr   0.04036   0.98303   0.73170   1.000
    Zr37    Zr   0.54036   0.98303   0.73170   1.000
    Zr38    Zr   0.07028   0.15086   0.60225   1.000
    Zr39    Zr   0.57028   0.15086   0.60225   1.000
    Zr40    Zr   0.11035   0.18801   0.48121   1.000
    Zr41    Zr   0.61035   0.18801   0.48121   1.000
    Zr42    Zr   0.08381   0.94311   0.84227   1.000
    Zr43    Zr   0.58381   0.94311   0.84227   1.000
    Zr44    Zr   0.17736   0.04926   0.99840   1.000
    Zr45    Zr   0.67736   0.04926   0.99842   1.000
    Zr46    Zr   0.19546   0.16972   0.09287   1.000
    Zr47    Zr   0.69546   0.16972   0.09287   1.000
    Zr48    Zr   0.20964   0.01696   0.23169   1.000
    Zr49    Zr   0.70964   0.01696   0.23169   1.000
    Zr50    Zr   0.17972   0.84910   0.10223   1.000
    Zr51    Zr   0.67972   0.84910   0.10223   1.000
    Zr52    Zr   0.13965   0.81194   0.98121   1.000
    Zr53    Zr   0.63965   0.81194   0.98121   1.000
    Zr54    Zr   0.16621   0.05688   0.34220   1.000
    Zr55    Zr   0.66621   0.05688   0.34228   1.000
    Zr56    Zr   0.42736   0.04927   0.50159   1.000
    Zr57    Zr   0.92736   0.04927   0.50159   1.000
    Zr58    Zr   0.44546   0.16971   0.40712   1.000
    Zr59    Zr   0.94546   0.16971   0.40712   1.000
    Zr60    Zr   0.45964   0.01693   0.26830   1.000
    Zr61    Zr   0.95964   0.01693   0.26830   1.000
    Zr62    Zr   0.42972   0.84910   0.39775   1.000
    Zr63    Zr   0.92972   0.84910   0.39775   1.000
    Zr64    Zr   0.38965   0.81194   0.51879   1.000
    Zr65    Zr   0.88965   0.81194   0.51879   1.000
    Zr66    Zr   0.41620   0.05686   0.15772   1.000
    Zr67    Zr   0.91620   0.05686   0.15772   1.000
    Zr68    Zr   0.32264   0.95071   0.00157   1.000
    Zr69    Zr   0.82264   0.95071   0.00157   1.000
    Zr70    Zr   0.30455   0.83025   0.90710   1.000
    Zr71    Zr   0.80455   0.83025   0.90712   1.000
    Zr72    Zr   0.29036   0.98301   0.76831   1.000
    Zr73    Zr   0.79036   0.98301   0.76831   1.000
    Zr74    Zr   0.32028   0.15086   0.89777   1.000
    Zr75    Zr   0.82028   0.15086   0.89777   1.000
    Zr76    Zr   0.36035   0.18801   0.01879   1.000
    Zr77    Zr   0.86035   0.18801   0.01879   1.000
    Zr78    Zr   0.33379   0.94309   0.65772   1.000
    Zr79    Zr   0.83379   0.94309   0.65770   1.000
    O80     O    0.80284   0.99831   0.05630   1.000
    O81     O    0.82725   0.90800   0.98659   1.000
    O82     O    0.30284   0.99831   0.05629   1.000
    O83     O    0.32725   0.90800   0.98659   1.000
    O84     O    0.82170   0.11696   0.06491   1.000
    O85     O    0.86366   0.19921   0.98396   1.000
    O86     O    0.32170   0.11696   0.06490   1.000
    O87     O    0.36366   0.19921   0.98396   1.000
    O88     O    0.68180   0.15220   0.06063   1.000
    O89     O    0.67275   0.09197   0.01341   1.000
    O90     O    0.18180   0.15220   0.06063   1.000
    O91     O    0.17275   0.09197   0.01340   1.000
    O92     O    0.65638   0.81933   0.07655   1.000
    O93     O    0.63634   0.80075   0.01605   1.000
    O94     O    0.15638   0.81933   0.07655   1.000
    O95     O    0.13634   0.80075   0.01605   1.000
    O96     O    0.23925   0.10781   0.10193   1.000
    O97     O    0.73925   0.10781   0.10195   1.000
    O98     O    0.23138   0.94751   0.10662   1.000
    O99     O    0.73138   0.94751   0.10663   1.000
    O100    O    0.34962   0.05138   0.13436   1.000
    O101    O    0.24634   0.03143   0.17135   1.000
    O102    O    0.84962   0.05138   0.13437   1.000
    O103    O    0.74634   0.03143   0.17136   1.000
    O104    O    0.94167   0.06859   0.18504   1.000
    O105    O    0.44167   0.06859   0.18504   1.000
    O106    O    0.96339   0.04863   0.24033   1.000
    O107    O    0.46339   0.04863   0.24033   1.000
    O108    O    0.21339   0.04865   0.25965   1.000
    O109    O    0.71339   0.04865   0.25965   1.000
    O110    O    0.49634   0.03142   0.32863   1.000
    O111    O    0.99634   0.03142   0.32863   1.000
    O112    O    0.69168   0.06861   0.31494   1.000
    O113    O    0.19168   0.06861   0.31490   1.000
    O114    O    0.09963   0.05139   0.36558   1.000
    O115    O    0.59963   0.05139   0.36563   1.000
    O116    O    0.98138   0.94750   0.39336   1.000
    O117    O    0.98925   0.10781   0.39805   1.000
    O118    O    0.07170   0.11696   0.43509   1.000
    O119    O    0.05284   0.99830   0.44368   1.000
    O120    O    0.48138   0.94750   0.39336   1.000
    O121    O    0.48925   0.10781   0.39805   1.000
    O122    O    0.57170   0.11696   0.43509   1.000
    O123    O    0.55284   0.99830   0.44368   1.000
    O124    O    0.40638   0.81933   0.42343   1.000
    O125    O    0.90638   0.81932   0.42343   1.000
    O126    O    0.93180   0.15220   0.43937   1.000
    O127    O    0.43180   0.15220   0.43937   1.000
    O128    O    0.88635   0.80075   0.48395   1.000
    O129    O    0.38635   0.80075   0.48395   1.000
    O130    O    0.92275   0.09197   0.48660   1.000
    O131    O    0.42275   0.09197   0.48660   1.000
    O132    O    0.61365   0.19921   0.51605   1.000
    O133    O    0.11366   0.19921   0.51605   1.000
    O134    O    0.07725   0.90800   0.51340   1.000
    O135    O    0.57725   0.90800   0.51340   1.000
    O136    O    0.94716   0.00166   0.55631   1.000
    O137    O    0.44716   0.00166   0.55631   1.000
    O138    O    0.92830   0.88300   0.56491   1.000
    O139    O    0.42830   0.88300   0.56491   1.000
    O140    O    0.56821   0.84778   0.56063   1.000
    O141    O    0.06821   0.84778   0.56063   1.000
    O142    O    0.09362   0.18064   0.57657   1.000
    O143    O    0.59362   0.18064   0.57657   1.000
    O144    O    0.51075   0.89217   0.60196   1.000
    O145    O    0.01075   0.89217   0.60196   1.000
    O146    O    0.51862   0.05246   0.60664   1.000
    O147    O    0.01862   0.05246   0.60664   1.000
    O148    O    0.90037   0.94857   0.63436   1.000
    O149    O    0.00365   0.96854   0.67137   1.000
    O150    O    0.40037   0.94857   0.63438   1.000
    O151    O    0.50365   0.96854   0.67137   1.000
    O152    O    0.80832   0.93135   0.68503   1.000
    O153    O    0.30832   0.93135   0.68504   1.000
    O154    O    0.28661   0.95131   0.74034   1.000
    O155    O    0.78661   0.95131   0.74034   1.000
    O156    O    0.53661   0.95133   0.75967   1.000
    O157    O    0.03661   0.95133   0.75967   1.000
    O158    O    0.25366   0.96853   0.82864   1.000
    O159    O    0.75366   0.96853   0.82864   1.000
    O160    O    0.55834   0.93137   0.81495   1.000
    O161    O    0.05834   0.93137   0.81495   1.000
    O162    O    0.65038   0.94858   0.86562   1.000
    O163    O    0.15038   0.94858   0.86562   1.000
    O164    O    0.26862   0.05245   0.89338   1.000
    O165    O    0.26075   0.89215   0.89804   1.000
    O166    O    0.17830   0.88300   0.93510   1.000
    O167    O    0.19716   0.00166   0.94369   1.000
    O168    O    0.76862   0.05245   0.89338   1.000
    O169    O    0.76075   0.89215   0.89805   1.000
    O170    O    0.67830   0.88300   0.93510   1.000
    O171    O    0.69716   0.00166   0.94370   1.000
    O172    O    0.84362   0.18063   0.92344   1.000
    O173    O    0.34362   0.18063   0.92344   1.000
    O174    O    0.31821   0.84777   0.93935   1.000
    O175    O    0.81821   0.84777   0.93937   1.000
    O176    O    0.01979   0.95238   0.55471   1.000
    O177    O    0.51979   0.95238   0.55471   1.000
    O178    O    0.23020   0.04758   0.05470   1.000
    O179    O    0.73020   0.04758   0.05472   1.000
    O180    O    0.48020   0.04759   0.44528   1.000
    O181    O    0.98020   0.04759   0.44528   1.000
    O182    O    0.26980   0.95238   0.94528   1.000
    O183    O    0.76980   0.95238   0.94528   1.000
    N184    N    0.31447   0.56450   0.68338   1.000
    O185    O    0.40484   0.71419   0.73657   1.000
    O186    O    0.37899   0.71666   0.67400   1.000
    O187    O    0.23415   0.41455   0.62184   1.000
    N188    N    0.06447   0.56449   0.81662   1.000
    O189    O    0.98415   0.41454   0.87814   1.000
    O190    O    0.15484   0.71418   0.76342   1.000
    O191    O    0.12899   0.71665   0.82599   1.000
    N192    N    0.56447   0.56449   0.81659   1.000
    O193    O    0.48415   0.41454   0.87814   1.000
    O194    O    0.65484   0.71418   0.76341   1.000
    O195    O    0.62899   0.71665   0.82597   1.000
    N196    N    0.25001   0.49999   1.00000   1.000
    O197    O    0.30298   0.66872   0.99703   1.000
    O198    O    0.19703   0.33126   0.00297   1.000
    N199    N    0.18553   0.43545   0.31661   1.000
    O200    O    0.09516   0.28577   0.26342   1.000
    O201    O    0.12101   0.28330   0.32598   1.000
    O202    O    0.26586   0.58540   0.37814   1.000
    N203    N    0.50001   0.49999   0.49999   1.000
    O204    O    0.55298   0.66872   0.50296   1.000
    O205    O    0.44703   0.33126   0.49702   1.000
    N206    N    0.93554   0.43547   0.18336   1.000
    O207    O    0.87102   0.28331   0.17400   1.000
    O208    O    0.01586   0.58541   0.12184   1.000
    O209    O    0.84516   0.28578   0.23655   1.000
    N210    N    0.81447   0.56450   0.68338   1.000
    O211    O    0.87899   0.71666   0.67401   1.000
    O212    O    0.90484   0.71419   0.73657   1.000
    O213    O    0.73415   0.41455   0.62184   1.000
    N214    N    0.75001   0.49999   0.99999   1.000
    O215    O    0.80298   0.66872   0.99703   1.000
    O216    O    0.69703   0.33126   0.00297   1.000
    N217    N    0.68553   0.43545   0.31661   1.000
    O218    O    0.62101   0.28330   0.32598   1.000
    O219    O    0.59516   0.28577   0.26342   1.000
    O220    O    0.76586   0.58540   0.37814   1.000
    N221    N    0.99937   0.49999   0.49999   1.000
    O222    O    0.05266   0.66872   0.50296   1.000
    O223    O    0.94671   0.33126   0.49702   1.000
    N224    N    0.43554   0.43547   0.18335   1.000
    O225    O    0.37102   0.28331   0.17399   1.000
    O226    O    0.34517   0.28578   0.23655   1.000
    O227    O    0.51586   0.58541   0.12184   1.000
loop_
    _geom_bond_atom_site_label_1
    _geom_bond_atom_site_label_2
    _geom_bond_distance
    _geom_bond_site_symmetry_2
    _ccdc_geom_bond_type
    Zr69   O80       1.27043      .   S
    Zr3    O80       1.27043  1_545   S
    Zr69   O81       0.64287  1_554   S
    Zr31   O81       0.64287      .   S
    Zr68   O82       1.27029      .   S
    Zr2    O82       1.27029  1_545   S
    Zr68   O83       0.64286  1_554   S
    Zr30   O83       0.64286      .   S
    Zr77   O84       1.21932      .   S
    Zr3    O84       1.21932      .   S
    Zr77   O85       0.63660  1_554   S
    Zr27   O85       0.63660      .   S
    Zr76   O86       1.21920      .   S
    Zr2    O86       1.21920      .   S
    Zr76   O87       0.63660  1_554   S
    Zr26   O87       0.63660      .   S
    Zr19   O88       0.63061      .   S
    Zr47   O88       0.63061      .   S
    Zr19   O89       0.64289      .   S
    Zr45   O89       0.64289  1_556   S
    Zr18   O90       0.63061      .   S
    Zr46   O90       0.63061      .   S
    Zr18   O91       0.64296      .   S
    Zr44   O91       0.64296  1_556   S
    Zr15   O92       0.63334      .   S
    Zr51   O92       0.63334      .   S
    Zr15   O93       0.63659      .   S
    Zr53   O93       0.63659  1_556   S
    Zr14   O94       0.63334      .   S
    Zr50   O94       0.63334      .   S
    Zr14   O95       0.63659      .   S
    Zr52   O95       0.63659  1_556   S
    Zr46   O96       1.30926      .   S
    Zr2    O96       1.30926      .   S
    Zr47   O97       1.30927      .   S
    Zr3    O97       1.30927      .   S
    Zr50   O98       1.23565      .   S
    Zr2    O98       1.23565  1_545   S
    Zr51   O99       1.23566      .   S
    Zr3    O99       1.23566  1_545   S
    Zr2    O100      1.20953      .   S
    Zr66   O100      1.20953      .   S
    Zr2    O101      1.23076      .   S
    Zr48   O101      1.23076      .   S
    Zr3    O102      1.20947      .   S
    Zr67   O102      1.20947      .   S
    Zr3    O103      1.23060      .   S
    Zr49   O103      1.23060      .   S
    Zr67   O104      0.63726      .   S
    Zr23   O104      0.63726      .   S
    Zr66   O105      0.63726      .   S
    Zr22   O105      0.63726      .   S
    Zr23   O106      0.63187      .   S
    Zr61   O106      0.63187      .   S
    Zr22   O107      0.63187      .   S
    Zr60   O107      0.63187      .   S
    Zr48   O108      0.63154      .   S
    Zr16   O108      0.63154      .   S
    Zr49   O109      0.63154      .   S
    Zr17   O109      0.63154      .   S
    Zr60   O110      1.23062      .   S
    Zr5    O110      1.23062      .   S
    Zr61   O111      1.23063      .   S
    Zr4    O111      1.23063  1_455   S
    Zr17   O112      0.63757      .   S
    Zr55   O112      0.63757      .   S
    Zr16   O113      0.63702      .   S
    Zr54   O113      0.63702      .   S
    Zr54   O114      1.20971      .   S
    Zr4    O114      1.20971      .   S
    Zr55   O115      1.20947      .   S
    Zr5    O115      1.20947      .   S
    Zr4    O116      1.23568  1_445   S
    Zr63   O116      1.23568      .   S
    Zr4    O117      1.30929  1_455   S
    Zr59   O117      1.30929      .   S
    Zr4    O118      1.21938      .   S
    Zr40   O118      1.21938      .   S
    Zr4    O119      1.27036  1_545   S
    Zr32   O119      1.27036      .   S
    Zr5    O120      1.23568  1_545   S
    Zr62   O120      1.23568      .   S
    Zr5    O121      1.30928      .   S
    Zr58   O121      1.30928      .   S
    Zr5    O122      1.21938      .   S
    Zr41   O122      1.21938      .   S
    Zr5    O123      1.27036  1_545   S
    Zr33   O123      1.27036      .   S
    Zr62   O124      0.63338      .   S
    Zr20   O124      0.63338      .   S
    Zr63   O125      0.63338      .   S
    Zr21   O125      0.63338      .   S
    Zr59   O126      0.63068      .   S
    Zr25   O126      0.63068      .   S
    Zr58   O127      0.63068      .   S
    Zr24   O127      0.63068      .   S
    Zr21   O128      0.63668      .   S
    Zr65   O128      0.63668      .   S
    Zr20   O129      0.63668      .   S
    Zr64   O129      0.63668      .   S
    Zr25   O130      0.64295      .   S
    Zr57   O130      0.64295      .   S
    Zr24   O131      0.64295      .   S
    Zr56   O131      0.64295      .   S
    Zr41   O132      0.63669      .   S
    Zr9    O132      0.63669      .   S
    Zr40   O133      0.63669      .   S
    Zr8    O133      0.63669      .   S
    Zr32   O134      0.64294      .   S
    Zr12   O134      0.64294      .   S
    Zr33   O135      0.64295      .   S
    Zr13   O135      0.64295      .   S
    Zr57   O136      1.27042      .   S
    Zr1    O136      1.27042  1_565   S
    Zr56   O137      1.27042      .   S
    Zr0    O137      1.27042  1_565   S
    Zr65   O138      1.21940      .   S
    Zr1    O138      1.21940      .   S
    Zr64   O139      1.21940      .   S
    Zr0    O139      1.21940      .   S
    Zr13   O140      0.63066      .   S
    Zr35   O140      0.63066      .   S
    Zr12   O141      0.63066      .   S
    Zr34   O141      0.63066      .   S
    Zr8    O142      0.63339      .   S
    Zr38   O142      0.63339      .   S
    Zr9    O143      0.63338      .   S
    Zr39   O143      0.63338      .   S
    Zr35   O144      1.30927      .   S
    Zr0    O144      1.30927      .   S
    Zr34   O145      1.30928      .   S
    Zr1    O145      1.30928  1_655   S
    Zr39   O146      1.23567      .   S
    Zr0    O146      1.23567  1_565   S
    Zr38   O147      1.23568      .   S
    Zr1    O147      1.23568  1_665   S
    Zr1    O148      1.20940      .   S
    Zr79   O148      1.20940      .   S
    Zr1    O149      1.23062  1_655   S
    Zr36   O149      1.23062      .   S
    Zr0    O150      1.20946      .   S
    Zr78   O150      1.20946      .   S
    Zr0    O151      1.23061      .   S
    Zr37   O151      1.23061      .   S
    Zr79   O152      0.63743      .   S
    Zr29   O152      0.63743      .   S
    Zr78   O153      0.63729      .   S
    Zr28   O153      0.63729      .   S
    Zr28   O154      0.63182      .   S
    Zr72   O154      0.63182      .   S
    Zr29   O155      0.63182      .   S
    Zr73   O155      0.63182      .   S
    Zr37   O156      0.63180      .   S
    Zr11   O156      0.63180      .   S
    Zr36   O157      0.63180      .   S
    Zr10   O157      0.63180      .   S
    Zr72   O158      1.23060      .   S
    Zr6    O158      1.23060      .   S
    Zr73   O159      1.23060      .   S
    Zr7    O159      1.23060      .   S
    Zr11   O160      0.63731      .   S
    Zr43   O160      0.63731      .   S
    Zr10   O161      0.63730      .   S
    Zr42   O161      0.63730      .   S
    Zr43   O162      1.20944      .   S
    Zr7    O162      1.20944      .   S
    Zr42   O163      1.20944      .   S
    Zr6    O163      1.20944      .   S
    Zr6    O164      1.23567  1_565   S
    Zr74   O164      1.23567      .   S
    Zr6    O165      1.30927      .   S
    Zr70   O165      1.30927      .   S
    Zr6    O166      1.21936      .   S
    Zr52   O166      1.21936      .   S
    Zr6    O167      1.27026  1_565   S
    Zr44   O167      1.27026      .   S
    Zr7    O168      1.23567  1_565   S
    Zr75   O168      1.23567      .   S
    Zr7    O169      1.30930      .   S
    Zr71   O169      1.30930      .   S
    Zr7    O170      1.21936      .   S
    Zr53   O170      1.21936      .   S
    Zr7    O171      1.27040  1_565   S
    Zr45   O171      1.27040      .   S
    Zr75   O172      0.63333      .   S
    Zr27   O172      0.63333      .   S
    Zr74   O173      0.63333      .   S
    Zr26   O173      0.63333      .   S
    Zr70   O174      0.63086      .   S
    Zr30   O174      0.63086      .   S
    Zr71   O175      0.63070      .   S
    Zr31   O175      0.63070      .   S
    Zr32   O176      1.37036      .   S
    Zr1    O176      1.37036  1_655   S
    Zr33   O177      1.37034      .   S
    Zr0    O177      1.37034      .   S
    Zr44   O178      1.37020  1_556   S
    Zr2    O178      1.37020      .   S
    Zr45   O179      1.37020  1_556   S
    Zr3    O179      1.37020      .   S
    Zr56   O180      1.37028      .   S
    Zr5    O180      1.37028      .   S
    Zr57   O181      1.37029      .   S
    Zr4    O181      1.37029  1_455   S
    Zr68   O182      1.37011  1_554   S
    Zr6    O182      1.37011      .   S
    Zr69   O183      1.37011  1_554   S
    Zr7    O183      1.37011      .   S
    N184   O185      2.17263      .   S
    Zr11   O185      2.86085      .   S
    N184   O186      1.84328      .   S
    Zr0    O186      3.04422      .   S
    N184   O187      2.18557      .   S
    Zr8    O187      2.91188      .   S
    N188   O189      2.18538  1_455   S
    Zr27   O189      2.91213      .   S
    N188   O190      2.17260      .   S
    Zr28   O190      2.86079      .   S
    N188   O191      1.84328      .   S
    Zr6    O191      3.04442      .   S
    N192   O193      2.18562      .   S
    Zr26   O193      2.91215      .   S
    N192   O194      2.17248      .   S
    Zr29   O194      2.86070      .   S
    N192   O195      1.84330      .   S
    Zr7    O195      3.04452      .   S
    N196   O197      1.99756      .   S
    Zr30   O197      2.41677      .   S
    N196   O198      1.99760  1_556   S
    Zr18   O198      2.41687      .   S
    N199   O200      2.17260      .   S
    Zr23   O200      2.86086  1_655   S
    N199   O201      1.84325      .   S
    Zr4    O201      3.04431      .   S
    N199   O202      2.18548      .   S
    Zr20   O202      2.91204      .   S
    N203   O204      1.99756      .   S
    Zr13   O204      2.41680      .   S
    N203   O205      1.99759      .   S
    Zr24   O205      2.41679      .   S
    N206   O207      1.84325      .   S
    Zr3    O207      3.04431      .   S
    N206   O208      2.18534  1_655   S
    Zr14   O208      2.91193      .   S
    N206   O209      2.17260      .   S
    Zr17   O209      2.86070      .   S
    N210   O211      1.84326      .   S
    Zr1    O211      3.04433      .   S
    N210   O212      2.17262      .   S
    Zr10   O212      2.86085  1_455   S
    N210   O213      2.18559      .   S
    Zr9    O213      2.91190      .   S
    N214   O215      1.99756      .   S
    Zr31   O215      2.41676      .   S
    N214   O216      1.99761  1_556   S
    Zr19   O216      2.41688      .   S
    N217   O218      1.84325      .   S
    Zr5    O218      3.04430      .   S
    N217   O219      2.17259      .   S
    Zr22   O219      2.86085      .   S
    N217   O220      2.18548      .   S
    Zr21   O220      2.91204      .   S
    N221   O222      1.99779  1_655   S
    Zr12   O222      2.41571      .   S
    N221   O223      1.99738      .   S
    Zr25   O223      2.41791      .   S
    N224   O225      1.84326      .   S
    Zr2    O225      3.04440      .   S
    N224   O226      2.17261      .   S
    Zr16   O226      2.86071      .   S
    N224   O227      2.18533      .   S
    Zr15   O227      2.91193      .   S
