# CIF file generated by openbabel 2.4.90, see http://openbabel.sf.net
data_I
_chemical_name_common ''
_cell_length_a 17.434
_cell_length_b 12.841
_cell_length_c 17.875
_cell_angle_alpha 90.002
_cell_angle_beta 89.998
_cell_angle_gamma 112.94
_space_group_name_H-M_alt 'P 1'
_space_group_name_Hall 'P 1'
loop_
    _symmetry_equiv_pos_as_xyz
    x,y,z
loop_
    _atom_site_label
    _atom_site_type_symbol
    _atom_site_fract_x
    _atom_site_fract_y
    _atom_site_fract_z
    _atom_site_occupancy
    Zr0     Zr   0.46695   0.95406   0.61103   1.000
    Zr1     Zr   0.96695   0.95406   0.61103   1.000
    Zr2     Zr   0.28305   0.04591   0.11100   1.000
    Zr3     Zr   0.78305   0.04591   0.11102   1.000
    Zr4     Zr   0.03305   0.04591   0.38897   1.000
    Zr5     Zr   0.53304   0.04591   0.38897   1.000
    Zr6     Zr   0.21696   0.95405   0.88898   1.000
    Zr7     Zr   0.71696   0.95405   0.88898   1.000
    N8      N    0.31447   0.56450   0.68338   1.000
    O9      O    0.37899   0.71666   0.67400   1.000
    N10     N    0.06447   0.56449   0.81662   1.000
    O11     O    0.12899   0.71665   0.82599   1.000
    N12     N    0.56447   0.56449   0.81659   1.000
    O13     O    0.62899   0.71665   0.82597   1.000
    N14     N    0.25001   0.49999   1.00000   1.000
    N15     N    0.18553   0.43545   0.31661   1.000
    O16     O    0.12101   0.28330   0.32598   1.000
    N17     N    0.50001   0.49999   0.49999   1.000
    N18     N    0.93554   0.43547   0.18336   1.000
    O19     O    0.87102   0.28331   0.17400   1.000
    N20     N    0.81447   0.56450   0.68338   1.000
    O21     O    0.87899   0.71666   0.67401   1.000
    N22     N    0.75001   0.49999   0.99999   1.000
    N23     N    0.68553   0.43545   0.31661   1.000
    O24     O    0.62101   0.28330   0.32598   1.000
    N25     N    0.99937   0.49999   0.49999   1.000
    N26     N    0.43554   0.43547   0.18335   1.000
    O27     O    0.37102   0.28331   0.17399   1.000
    C28     C    0.15080   0.81687   0.04477   1.000
    O29     O    0.08333   0.70114   0.08331   1.000
    O30     O    0.16455   0.84993   0.98993   1.000
    O31     O    0.19109   0.88219   0.07569   1.000
    C32     C    0.30234   0.94857   0.71280   1.000
    O33     O    0.22859   0.83137   0.73811   1.000
    O34     O    0.27800   0.95855   0.77072   1.000
    O35     O    0.35135   0.94857   0.67359   1.000
    C36     C    0.19767   0.05139   0.28716   1.000
    O37     O    0.27142   0.16859   0.26186   1.000
    O38     O    0.22201   0.04141   0.22925   1.000
    O39     O    0.14865   0.05139   0.32637   1.000
    C40     C    0.09920   0.18310   0.54478   1.000
    O41     O    0.16667   0.29883   0.58331   1.000
    O42     O    0.05891   0.11778   0.57571   1.000
    O43     O    0.08545   0.15003   0.48994   1.000
    C44     C    0.06969   0.88209   0.53989   1.000
    O45     O    0.04022   0.88713   0.57092   1.000
    O46     O    0.06117   0.77540   0.52143   1.000
    O47     O    0.06126   0.94019   0.49179   1.000
    O48     O    0.04474   0.91723   0.54730   1.000
    C49     C    0.18032   0.11789   0.03989   1.000
    O50     O    0.18874   0.05977   0.99179   1.000
    O51     O    0.20526   0.08274   0.04729   1.000
    O52     O    0.18868   0.22457   0.02143   1.000
    O53     O    0.20979   0.11285   0.07091   1.000
    C54     C    0.56968   0.88209   0.53989   1.000
    O55     O    0.56126   0.94019   0.49179   1.000
    O56     O    0.54474   0.91723   0.54730   1.000
    O57     O    0.54022   0.88713   0.57092   1.000
    O58     O    0.56133   0.77540   0.52143   1.000
    C59     C    0.44766   0.05137   0.21279   1.000
    O60     O    0.47200   0.04140   0.27071   1.000
    O61     O    0.52141   0.16857   0.23811   1.000
    O62     O    0.39864   0.05138   0.17358   1.000
    C63     C    0.65080   0.81687   0.04477   1.000
    O64     O    0.66455   0.84993   0.98993   1.000
    O65     O    0.69109   0.88219   0.07570   1.000
    O66     O    0.58333   0.70114   0.08331   1.000
    C67     C    0.68032   0.11789   0.03989   1.000
    O68     O    0.70526   0.08274   0.04731   1.000
    O69     O    0.68874   0.05977   0.99180   1.000
    O70     O    0.68868   0.22457   0.02143   1.000
    O71     O    0.70979   0.11285   0.07092   1.000
    C72     C    0.55234   0.94859   0.78720   1.000
    O73     O    0.60136   0.94859   0.82641   1.000
    O74     O    0.52800   0.95857   0.72928   1.000
    O75     O    0.47859   0.83139   0.76189   1.000
    C76     C    0.43032   0.11789   0.46011   1.000
    O77     O    0.43868   0.22457   0.47856   1.000
    O78     O    0.45979   0.11285   0.42908   1.000
    O79     O    0.43874   0.05977   0.50821   1.000
    O80     O    0.45526   0.08274   0.45269   1.000
    C81     C    0.84920   0.18309   0.95523   1.000
    O82     O    0.91667   0.29882   0.91668   1.000
    O83     O    0.83545   0.15002   0.01007   1.000
    O84     O    0.80891   0.11777   0.92430   1.000
    C85     C    0.40080   0.81687   0.45522   1.000
    O86     O    0.33333   0.70113   0.41668   1.000
    O87     O    0.44109   0.88218   0.42429   1.000
    O88     O    0.41455   0.84993   0.51006   1.000
    C89     C    0.05234   0.94859   0.78720   1.000
    O90     O    0.10136   0.94859   0.82641   1.000
    O91     O    0.02800   0.95857   0.72928   1.000
    O92     O    0.97859   0.83139   0.76189   1.000
    C93     C    0.94766   0.05137   0.21279   1.000
    O94     O    0.97200   0.04140   0.27071   1.000
    O95     O    0.02141   0.16857   0.23811   1.000
    O96     O    0.89864   0.05138   0.17358   1.000
    C97     C    0.80233   0.94857   0.71279   1.000
    O98     O    0.72859   0.83137   0.73810   1.000
    O99     O    0.85135   0.94857   0.67358   1.000
    O100    O    0.77800   0.95855   0.77072   1.000
    C101    C    0.90080   0.81686   0.45522   1.000
    O102    O    0.83333   0.70113   0.41668   1.000
    O103    O    0.94109   0.88218   0.42429   1.000
    O104    O    0.91455   0.84993   0.51006   1.000
    C105    C    0.31968   0.88208   0.96009   1.000
    O106    O    0.31133   0.77540   0.97856   1.000
    O107    O    0.31126   0.94019   0.00819   1.000
    O108    O    0.29474   0.91723   0.95268   1.000
    O109    O    0.29022   0.88712   0.92907   1.000
    C110    C    0.69767   0.05139   0.28719   1.000
    O111    O    0.72200   0.04141   0.22927   1.000
    O112    O    0.77141   0.16859   0.26187   1.000
    O113    O    0.64865   0.05139   0.32641   1.000
    C114    C    0.34920   0.18309   0.95523   1.000
    O115    O    0.41667   0.29882   0.91668   1.000
    O116    O    0.33545   0.15003   0.01006   1.000
    O117    O    0.30891   0.11777   0.92430   1.000
    C118    C    0.93032   0.11789   0.46011   1.000
    O119    O    0.93874   0.05977   0.50821   1.000
    O120    O    0.95526   0.08274   0.45269   1.000
    O121    O    0.95978   0.11285   0.42908   1.000
    O122    O    0.93852   0.22457   0.47857   1.000
    C123    C    0.59920   0.18310   0.54478   1.000
    O124    O    0.58545   0.15003   0.48994   1.000
    O125    O    0.66667   0.29882   0.58331   1.000
    O126    O    0.55891   0.11778   0.57571   1.000
    C127    C    0.81968   0.88208   0.96010   1.000
    O128    O    0.81133   0.77540   0.97856   1.000
    O129    O    0.79022   0.88712   0.92908   1.000
    O130    O    0.81126   0.94020   0.00820   1.000
    O131    O    0.79474   0.91723   0.95269   1.000
loop_
    _geom_bond_atom_site_label_1
    _geom_bond_atom_site_label_2
    _geom_bond_distance
    _geom_bond_site_symmetry_2
    _ccdc_geom_bond_type
    N8     O9        1.84328      .   S
    Zr0    O9        3.04422      .   S
    N10    O11       1.84328      .   S
    Zr6    O11       3.04442      .   S
    N12    O13       1.84330      .   S
    Zr7    O13       3.04452      .   S
    N15    O16       1.84325      .   S
    Zr4    O16       3.04431      .   S
    N18    O19       1.84325      .   S
    Zr3    O19       3.04431      .   S
    N20    O21       1.84326      .   S
    Zr1    O21       3.04433      .   S
    N23    O24       1.84325      .   S
    Zr5    O24       3.04430      .   S
    N26    O27       1.84326      .   S
    Zr2    O27       3.04440      .   S
    C28    O29       1.64432      .   S
    N18    O29       3.82409  1_655   S
    C28    O30       1.05797  1_554   S
    Zr6    O30       2.21958      .   S
    C28    O31       1.02135      .   S
    Zr2    O31       2.18193  1_545   S
    C32    O33       1.61689      .   S
    N10    O33       3.77583      .   S
    C32    O34       1.14492      .   S
    Zr6    O34       2.35718      .   S
    C32    O35       1.10521      .   S
    Zr0    O35       2.28171      .   S
    C36    O37       1.61685      .   S
    N26    O37       3.77578      .   S
    C36    O38       1.14469      .   S
    Zr2    O38       2.35711      .   S
    C36    O39       1.10523      .   S
    Zr4    O39       2.28208      .   S
    C40    O41       1.64430      .   S
    N8     O41       3.82428      .   S
    C40    O42       1.02140      .   S
    Zr1    O42       2.18200  1_665   S
    C40    O43       1.05809      .   S
    Zr4    O43       2.21974      .   S
    C44    O45       0.77568      .   S
    Zr1    O45       1.93391  1_655   S
    C44    O46       1.35983      .   S
    N25    O46       3.29311  1_655   S
    C44    O47       1.18451      .   S
    Zr4    O47       2.44605  1_545   S
    C44    O48       0.75058      .   S
    Zr1    O48       1.96472  1_655   S
    C49    O50       1.18445  1_554   S
    Zr6    O50       2.44588  1_565   S
    C49    O51       0.75055      .   S
    Zr2    O51       1.96453      .   S
    C49    O52       1.36065      .   S
    N14    O52       3.29397  1_556   S
    C49    O53       0.77559      .   S
    Zr2    O53       1.93378      .   S
    C54    O55       1.18451      .   S
    Zr5    O55       2.44605  1_545   S
    C54    O56       0.75057      .   S
    Zr0    O56       1.96470      .   S
    C54    O57       0.77567      .   S
    Zr0    O57       1.93389      .   S
    C54    O58       1.36063      .   S
    N17    O58       3.29388      .   S
    C59    O60       1.14494      .   S
    Zr5    O60       2.35722      .   S
    C59    O61       1.61691      .   S
    N23    O61       3.77585      .   S
    C59    O62       1.10532      .   S
    Zr2    O62       2.28192      .   S
    C63    O64       1.05797  1_554   S
    Zr7    O64       2.21959      .   S
    C63    O65       1.02139      .   S
    Zr3    O65       2.18201  1_545   S
    C63    O66       1.64431      .   S
    N26    O66       3.82407      .   S
    C67    O68       0.75057      .   S
    Zr3    O68       1.96459      .   S
    C67    O69       1.18443  1_554   S
    Zr7    O69       2.44599  1_565   S
    C67    O70       1.36067      .   S
    N22    O70       3.29398  1_556   S
    C67    O71       0.77561      .   S
    Zr3    O71       1.93385      .   S
    C72    O73       1.10530      .   S
    Zr7    O73       2.28183      .   S
    C72    O74       1.14491      .   S
    Zr0    O74       2.35717      .   S
    C72    O75       1.61692      .   S
    N8     O75       3.77589      .   S
    C76    O77       1.36062      .   S
    N17    O77       3.29392      .   S
    C76    O78       0.77565      .   S
    Zr5    O78       1.93386      .   S
    C76    O79       1.18453      .   S
    Zr0    O79       2.44612  1_565   S
    C76    O80       0.75058      .   S
    Zr5    O80       1.96464      .   S
    C81    O82       1.64442      .   S
    N10    O82       3.82423  1_455   S
    C81    O83       1.05797  1_556   S
    Zr3    O83       2.21956      .   S
    C81    O84       1.02137      .   S
    Zr7    O84       2.18200  1_565   S
    C85    O86       1.64438      .   S
    N15    O86       3.82428      .   S
    C85    O87       1.02140      .   S
    Zr5    O87       2.18201  1_545   S
    C85    O88       1.05809      .   S
    Zr0    O88       2.21976      .   S
    C89    O90       1.10530      .   S
    Zr6    O90       2.28182      .   S
    C89    O91       1.14491      .   S
    Zr1    O91       2.35718  1_655   S
    C89    O92       1.61692  1_455   S
    N20    O92       3.77588      .   S
    C93    O94       1.14495      .   S
    Zr4    O94       2.35723  1_455   S
    C93    O95       1.61691  1_655   S
    N15    O95       3.77586      .   S
    C93    O96       1.10526      .   S
    Zr3    O96       2.28179      .   S
    C97    O98       1.61687      .   S
    N12    O98       3.77570      .   S
    C97    O99       1.10523      .   S
    Zr1    O99       2.28164      .   S
    C97    O100      1.14498      .   S
    Zr7    O100      2.35723      .   S
    C101   O102      1.64438      .   S
    N23    O102      3.82428      .   S
    C101   O103      1.02141      .   S
    Zr4    O103      2.18202  1_445   S
    C101   O104      1.05810      .   S
    Zr1    O104      2.21976      .   S
    C105   O106      1.36063      .   S
    N14    O106      3.29387      .   S
    C105   O107      1.18441  1_556   S
    Zr2    O107      2.44587  1_545   S
    C105   O108      0.75057      .   S
    Zr6    O108      1.96448      .   S
    C105   O109      0.77560      .   S
    Zr6    O109      1.93377      .   S
    C110   O111      1.14482      .   S
    Zr3    O111      2.35708      .   S
    C110   O112      1.61691      .   S
    N18    O112      3.77587      .   S
    C110   O113      1.10530      .   S
    Zr5    O113      2.28179      .   S
    C114   O115      1.64442      .   S
    N12    O115      3.82446      .   S
    C114   O116      1.05789  1_556   S
    Zr2    O116      2.21934      .   S
    C114   O117      1.02138      .   S
    Zr6    O117      2.18200  1_565   S
    C118   O119      1.18453      .   S
    Zr1    O119      2.44612  1_565   S
    C118   O120      0.75059      .   S
    Zr4    O120      1.96466  1_455   S
    C118   O121      0.77565      .   S
    Zr4    O121      1.93389  1_455   S
    C118   O122      1.36142      .   S
    N25    O122      3.29472      .   S
    C123   O124      1.05809      .   S
    Zr5    O124      2.21974      .   S
    C123   O125      1.64431      .   S
    N20    O125      3.82430      .   S
    C123   O126      1.02140      .   S
    Zr0    O126      2.18199  1_565   S
    C127   O128      1.36061      .   S
    N22    O128      3.29386      .   S
    C127   O129      0.77558      .   S
    Zr7    O129      1.93383      .   S
    C127   O130      1.18444  1_556   S
    Zr3    O130      2.44603  1_545   S
    C127   O131      0.75058      .   S
    Zr7    O131      1.96451      .   S
