# CIF file generated by openbabel 2.4.90, see http://openbabel.sf.net
data_I
_chemical_name_common ''
_cell_length_a 17.434
_cell_length_b 12.841
_cell_length_c 17.875
_cell_angle_alpha 90.002
_cell_angle_beta 89.998
_cell_angle_gamma 112.94
_space_group_name_H-M_alt 'P 1'
_space_group_name_Hall 'P 1'
loop_
    _symmetry_equiv_pos_as_xyz
    x,y,z
loop_
    _atom_site_label
    _atom_site_type_symbol
    _atom_site_fract_x
    _atom_site_fract_y
    _atom_site_fract_z
    _atom_site_occupancy
    C0      C    0.46695   0.95406   0.61103   1.000
    C1      C    0.96695   0.95406   0.61103   1.000
    C2      C    0.28305   0.04591   0.11100   1.000
    C3      C    0.78305   0.04591   0.11102   1.000
    C4      C    0.03305   0.04591   0.38897   1.000
    C5      C    0.53304   0.04591   0.38897   1.000
    C6      C    0.21696   0.95405   0.88898   1.000
    C7      C    0.71696   0.95405   0.88898   1.000
    C8      C    0.28925   0.65175   0.80430   1.000
    C9      C    0.78925   0.65175   0.80430   1.000
    C10     C    0.18579   0.46305   0.76612   1.000
    C11     C    0.68579   0.46305   0.76612   1.000
    C12     C    0.32823   0.47985   0.56535   1.000
    C13     C    0.82823   0.47985   0.56535   1.000
    C14     C    0.42957   0.66653   0.60358   1.000
    C15     C    0.92957   0.66653   0.60358   1.000
    C16     C    0.19292   0.38310   0.52805   1.000
    C17     C    0.69292   0.38310   0.52805   1.000
    C18     C    0.24727   0.30115   0.56162   1.000
    C19     C    0.74727   0.30115   0.56162   1.000
    C20     C    0.41303   0.81549   0.83322   1.000
    C21     C    0.91303   0.81549   0.83322   1.000
    C22     C    0.47697   0.74009   0.80941   1.000
    C23     C    0.97697   0.74009   0.80941   1.000
    C24     C    0.19546   0.86967   0.48155   1.000
    C25     C    0.69546   0.86967   0.48150   1.000
    C26     C    0.10735   0.79684   0.42534   1.000
    C27     C    0.60735   0.79684   0.42534   1.000
    C28     C    0.11797   0.53118   0.58667   1.000
    C29     C    0.61797   0.53118   0.58667   1.000
    C30     C    0.99202   0.65925   0.42540   1.000
    C31     C    0.49202   0.65925   0.42540   1.000
    C32     C    0.46075   0.34823   0.30400   1.000
    C33     C    0.96075   0.34823   0.30400   1.000
    C34     C    0.06422   0.53692   0.26611   1.000
    C35     C    0.56422   0.53692   0.26611   1.000
    C36     C    0.42178   0.52011   0.06535   1.000
    C37     C    0.92178   0.52011   0.06535   1.000
    C38     C    0.32044   0.33344   0.10358   1.000
    C39     C    0.82044   0.33344   0.10358   1.000
    C40     C    0.05708   0.61686   0.02804   1.000
    C41     C    0.55708   0.61686   0.02800   1.000
    C42     C    0.00274   0.69882   0.06162   1.000
    C43     C    0.50273   0.69882   0.06162   1.000
    C44     C    0.33698   0.18448   0.33321   1.000
    C45     C    0.83698   0.18448   0.33321   1.000
    C46     C    0.27305   0.25988   0.30942   1.000
    C47     C    0.77305   0.25988   0.30942   1.000
    C48     C    0.05456   0.13031   0.98150   1.000
    C49     C    0.55456   0.13031   0.98156   1.000
    C50     C    0.14268   0.20313   0.92535   1.000
    C51     C    0.64268   0.20313   0.92535   1.000
    C52     C    0.13204   0.46881   0.08666   1.000
    C53     C    0.63204   0.46881   0.08666   1.000
    C54     C    0.25800   0.34072   0.92541   1.000
    C55     C    0.75800   0.34073   0.92541   1.000
    C56     C    0.21075   0.34820   0.19570   1.000
    C57     C    0.71075   0.34820   0.19570   1.000
    C58     C    0.31422   0.53690   0.23388   1.000
    C59     C    0.81422   0.53690   0.23388   1.000
    C60     C    0.17178   0.52011   0.43465   1.000
    C61     C    0.67178   0.52011   0.43465   1.000
    C62     C    0.07043   0.33344   0.39642   1.000
    C63     C    0.57043   0.33344   0.39642   1.000
    C64     C    0.30709   0.61686   0.47196   1.000
    C65     C    0.80709   0.61686   0.47196   1.000
    C66     C    0.25274   0.69881   0.43838   1.000
    C67     C    0.75274   0.69881   0.43838   1.000
    C68     C    0.08697   0.18447   0.16678   1.000
    C69     C    0.58697   0.18447   0.16678   1.000
    C70     C    0.02303   0.25987   0.19059   1.000
    C71     C    0.52303   0.25987   0.19059   1.000
    C72     C    0.30455   0.13031   0.51845   1.000
    C73     C    0.80455   0.13031   0.51845   1.000
    C74     C    0.39267   0.20314   0.57460   1.000
    C75     C    0.89267   0.20314   0.57460   1.000
    C76     C    0.38205   0.46881   0.41330   1.000
    C77     C    0.88205   0.46881   0.41330   1.000
    C78     C    0.50800   0.34073   0.57460   1.000
    C79     C    0.00000   0.34073   0.57460   1.000
    C80     C    0.03925   0.65173   0.69571   1.000
    C81     C    0.53925   0.65173   0.69571   1.000
    C82     C    0.43579   0.46303   0.73389   1.000
    C83     C    0.93579   0.46303   0.73389   1.000
    C84     C    0.07823   0.47985   0.93460   1.000
    C85     C    0.57823   0.47985   0.93460   1.000
    C86     C    0.17957   0.66652   0.89643   1.000
    C87     C    0.67957   0.66652   0.89643   1.000
    C88     C    0.44292   0.38310   0.97196   1.000
    C89     C    0.94292   0.38310   0.97196   1.000
    C90     C    0.49727   0.30114   0.93839   1.000
    C91     C    0.99727   0.30114   0.93839   1.000
    C92     C    0.16302   0.81548   0.66679   1.000
    C93     C    0.66302   0.81548   0.66679   1.000
    C94     C    0.22695   0.74008   0.69058   1.000
    C95     C    0.72695   0.74008   0.69058   1.000
    C96     C    0.44546   0.86968   0.01844   1.000
    C97     C    0.94546   0.86968   0.01840   1.000
    C98     C    0.35734   0.79686   0.07465   1.000
    C99     C    0.85734   0.79686   0.07465   1.000
    C100    C    0.36797   0.53117   0.91334   1.000
    C101    C    0.86797   0.53117   0.91334   1.000
    C102    C    0.24201   0.65926   0.07459   1.000
    C103    C    0.74201   0.65926   0.07459   1.000
    C104    C    0.36454   0.67191   0.70468   1.000
    C105    C    0.86454   0.67191   0.70468   1.000
    C106    C    0.29748   0.61390   0.75195   1.000
    C107    C    0.79748   0.61390   0.75195   1.000
    C108    C    0.23945   0.50792   0.73073   1.000
    C109    C    0.73945   0.50792   0.73073   1.000
    C110    C    0.24819   0.45958   0.66242   1.000
    C111    C    0.74819   0.45958   0.66242   1.000
    C112    C    0.31761   0.51649   0.61714   1.000
    C113    C    0.81761   0.51649   0.61714   1.000
    C114    C    0.37566   0.62228   0.63862   1.000
    C115    C    0.87566   0.62228   0.63862   1.000
    C116    C    0.19068   0.31880   0.56970   1.000
    C117    C    0.69068   0.31880   0.56970   1.000
    C118    C    0.11696   0.21041   0.55089   1.000
    C119    C    0.61696   0.21041   0.55089   1.000
    C120    C    0.45757   0.80812   0.79189   1.000
    C121    C    0.95757   0.80812   0.79189   1.000
    C122    C    0.03286   0.91964   0.78764   1.000
    C123    C    0.53286   0.91964   0.78764   1.000
    C124    C    0.08187   0.86530   0.52839   1.000
    C125    C    0.58187   0.86530   0.52839   1.000
    C126    C    0.13004   0.80960   0.48348   1.000
    C127    C    0.63004   0.80960   0.48348   1.000
    C128    C    0.06354   0.60834   0.50723   1.000
    C129    C    0.56354   0.60834   0.50723   1.000
    C130    C    0.06616   0.51706   0.54844   1.000
    C131    C    0.56616   0.51706   0.54844   1.000
    C132    C    0.99656   0.59088   0.45869   1.000
    C133    C    0.49656   0.59088   0.45869   1.000
    C134    C    0.38546   0.32806   0.20467   1.000
    C135    C    0.88546   0.32806   0.20467   1.000
    C136    C    0.45253   0.38608   0.25194   1.000
    C137    C    0.95253   0.38608   0.25194   1.000
    C138    C    0.01056   0.49205   0.23070   1.000
    C139    C    0.51056   0.49205   0.23070   1.000
    C140    C    0.00182   0.54039   0.16241   1.000
    C141    C    0.50182   0.54039   0.16241   1.000
    C142    C    0.43240   0.48348   0.11713   1.000
    C143    C    0.93239   0.48348   0.11713   1.000
    C144    C    0.37435   0.37769   0.13861   1.000
    C145    C    0.87435   0.37769   0.13861   1.000
    C146    C    0.05932   0.68117   0.06976   1.000
    C147    C    0.55932   0.68117   0.06976   1.000
    C148    C    0.13304   0.78955   0.05088   1.000
    C149    C    0.63304   0.78955   0.05088   1.000
    C150    C    0.29245   0.19185   0.29189   1.000
    C151    C    0.79244   0.19185   0.29189   1.000
    C152    C    0.21715   0.08034   0.28760   1.000
    C153    C    0.71714   0.08034   0.28760   1.000
    C154    C    0.16814   0.13468   0.02839   1.000
    C155    C    0.66814   0.13468   0.02839   1.000
    C156    C    0.11998   0.19038   0.98349   1.000
    C157    C    0.61998   0.19038   0.98349   1.000
    C158    C    0.18648   0.39164   0.00722   1.000
    C159    C    0.68648   0.39164   0.00722   1.000
    C160    C    0.18386   0.48292   0.04840   1.000
    C161    C    0.68386   0.48292   0.04840   1.000
    C162    C    0.25346   0.40910   0.95870   1.000
    C163    C    0.75346   0.40910   0.95870   1.000
    C164    C    0.13546   0.32805   0.29530   1.000
    C165    C    0.63546   0.32805   0.29530   1.000
    C166    C    0.20252   0.38606   0.24805   1.000
    C167    C    0.70252   0.38606   0.24805   1.000
    C168    C    0.26056   0.49203   0.26928   1.000
    C169    C    0.76056   0.49203   0.26928   1.000
    C170    C    0.25182   0.54037   0.33759   1.000
    C171    C    0.75182   0.54037   0.33759   1.000
    C172    C    0.18239   0.48347   0.38287   1.000
    C173    C    0.68239   0.48347   0.38287   1.000
    C174    C    0.12435   0.37768   0.36130   1.000
    C175    C    0.62434   0.37768   0.36130   1.000
    C176    C    0.30932   0.68116   0.43024   1.000
    C177    C    0.80932   0.68116   0.43024   1.000
    C178    C    0.38304   0.78955   0.44911   1.000
    C179    C    0.88304   0.78955   0.44911   1.000
    C180    C    0.04244   0.19184   0.20811   1.000
    C181    C    0.54243   0.19184   0.20811   1.000
    C182    C    0.46714   0.08033   0.21235   1.000
    C183    C    0.96714   0.08033   0.21235   1.000
    C184    C    0.41814   0.13468   0.47161   1.000
    C185    C    0.91814   0.13468   0.47161   1.000
    C186    C    0.36997   0.19038   0.51650   1.000
    C187    C    0.86997   0.19038   0.51650   1.000
    C188    C    0.43648   0.39164   0.49278   1.000
    C189    C    0.93648   0.39164   0.49278   1.000
    C190    C    0.43386   0.48292   0.45156   1.000
    C191    C    0.93385   0.48292   0.45156   1.000
    C192    C    0.50346   0.40910   0.54130   1.000
    C193    C    0.00000   0.40910   0.54130   1.000
    C194    C    0.11454   0.67190   0.79533   1.000
    C195    C    0.61454   0.67190   0.79533   1.000
    C196    C    0.04748   0.61388   0.74806   1.000
    C197    C    0.54748   0.61388   0.74806   1.000
    C198    C    0.48945   0.50790   0.76929   1.000
    C199    C    0.98944   0.50790   0.76929   1.000
    C200    C    0.49819   0.45957   0.83700   1.000
    C201    C    0.99819   0.45957   0.83759   1.000
    C202    C    0.06761   0.51648   0.88287   1.000
    C203    C    0.56761   0.51648   0.88287   1.000
    C204    C    0.12565   0.62227   0.86139   1.000
    C205    C    0.62565   0.62227   0.86139   1.000
    C206    C    0.44069   0.31879   0.93025   1.000
    C207    C    0.94068   0.31879   0.93020   1.000
    C208    C    0.36696   0.21040   0.94912   1.000
    C209    C    0.86696   0.21040   0.94912   1.000
    C210    C    0.20756   0.80811   0.70810   1.000
    C211    C    0.70756   0.80811   0.70810   1.000
    C212    C    0.28286   0.91962   0.71236   1.000
    C213    C    0.78285   0.91962   0.71236   1.000
    C214    C    0.33186   0.86529   0.97161   1.000
    C215    C    0.83186   0.86529   0.97161   1.000
    C216    C    0.38004   0.80961   0.01651   1.000
    C217    C    0.88004   0.80961   0.01651   1.000
    C218    C    0.31353   0.60834   0.99279   1.000
    C219    C    0.81354   0.60834   0.99279   1.000
    C220    C    0.31616   0.51706   0.95157   1.000
    C221    C    0.81616   0.51706   0.95157   1.000
    C222    C    0.24655   0.59088   0.04130   1.000
    C223    C    0.74655   0.59088   0.04130   1.000
    C224    C    0.42005   0.78358   0.71820   1.000
    C225    C    0.92005   0.78358   0.71826   1.000
    C226    C    0.07263   0.95070   0.49840   1.000
    C227    C    0.57263   0.95070   0.49840   1.000
    C228    C    0.05455   0.83027   0.59288   1.000
    C229    C    0.55455   0.83027   0.59288   1.000
    C230    C    0.13144   0.70960   0.51654   1.000
    C231    C    0.63144   0.70960   0.51654   1.000
    C232    C    0.04036   0.98303   0.73170   1.000
    C233    C    0.54036   0.98303   0.73170   1.000
    C234    C    0.18624   0.35747   0.64379   1.000
    C235    C    0.68624   0.35747   0.64379   1.000
    C236    C    0.07028   0.15086   0.60225   1.000
    C237    C    0.57028   0.15086   0.60225   1.000
    C238    C    0.11035   0.18801   0.48121   1.000
    C239    C    0.61035   0.18801   0.48121   1.000
    C240    C    0.08381   0.94311   0.84227   1.000
    C241    C    0.58381   0.94311   0.84227   1.000
    C242    C    0.32995   0.21639   0.21826   1.000
    C243    C    0.82995   0.21639   0.21826   1.000
    C244    C    0.17736   0.04926   0.99840   1.000
    C245    C    0.67736   0.04926   0.99842   1.000
    C246    C    0.19546   0.16972   0.09287   1.000
    C247    C    0.69546   0.16972   0.09287   1.000
    C248    C    0.11858   0.29038   0.01654   1.000
    C249    C    0.61858   0.29038   0.01650   1.000
    C250    C    0.20964   0.01696   0.23169   1.000
    C251    C    0.70964   0.01696   0.23169   1.000
    C252    C    0.06377   0.64250   0.14370   1.000
    C253    C    0.56377   0.64250   0.14370   1.000
    C254    C    0.17972   0.84910   0.10223   1.000
    C255    C    0.67972   0.84910   0.10223   1.000
    C256    C    0.13965   0.81194   0.98121   1.000
    C257    C    0.63965   0.81194   0.98121   1.000
    C258    C    0.16621   0.05688   0.34220   1.000
    C259    C    0.66621   0.05688   0.34228   1.000
    C260    C    0.07994   0.21638   0.28174   1.000
    C261    C    0.57994   0.21638   0.28174   1.000
    C262    C    0.42736   0.04927   0.50159   1.000
    C263    C    0.92736   0.04927   0.50159   1.000
    C264    C    0.44546   0.16971   0.40712   1.000
    C265    C    0.94546   0.16971   0.40712   1.000
    C266    C    0.36858   0.29039   0.48347   1.000
    C267    C    0.86857   0.29039   0.48347   1.000
    C268    C    0.45964   0.01693   0.26830   1.000
    C269    C    0.95964   0.01693   0.26830   1.000
    C270    C    0.31377   0.64248   0.35622   1.000
    C271    C    0.81377   0.64248   0.35622   1.000
    C272    C    0.42972   0.84910   0.39775   1.000
    C273    C    0.92972   0.84910   0.39775   1.000
    C274    C    0.38965   0.81194   0.51879   1.000
    C275    C    0.88965   0.81194   0.51879   1.000
    C276    C    0.41620   0.05686   0.15772   1.000
    C277    C    0.91620   0.05686   0.15772   1.000
    C278    C    0.17006   0.78356   0.78174   1.000
    C279    C    0.67005   0.78356   0.78174   1.000
    C280    C    0.32264   0.95071   0.00157   1.000
    C281    C    0.82264   0.95071   0.00157   1.000
    C282    C    0.30455   0.83025   0.90710   1.000
    C283    C    0.80455   0.83025   0.90712   1.000
    C284    C    0.38144   0.70960   0.98347   1.000
    C285    C    0.88144   0.70960   0.98347   1.000
    C286    C    0.29036   0.98301   0.76831   1.000
    C287    C    0.79036   0.98301   0.76831   1.000
    C288    C    0.43624   0.35745   0.85620   1.000
    C289    C    0.93624   0.35745   0.85620   1.000
    C290    C    0.32028   0.15086   0.89777   1.000
    C291    C    0.82028   0.15086   0.89777   1.000
    C292    C    0.36035   0.18801   0.01879   1.000
    C293    C    0.86035   0.18801   0.01879   1.000
    C294    C    0.33379   0.94309   0.65772   1.000
    C295    C    0.83379   0.94309   0.65770   1.000
    O296    O    0.80284   0.99831   0.05630   1.000
    O297    O    0.82725   0.90800   0.98659   1.000
    O298    O    0.30284   0.99831   0.05629   1.000
    O299    O    0.32725   0.90800   0.98659   1.000
    O300    O    0.65253   0.34101   0.01186   1.000
    O301    O    0.68517   0.43728   0.02781   1.000
    O302    O    0.71997   0.40037   0.98296   1.000
    O303    O    0.15253   0.34101   0.01188   1.000
    O304    O    0.18517   0.43728   0.02781   1.000
    O305    O    0.21997   0.40037   0.98296   1.000
    O306    O    0.61928   0.24038   0.99999   1.000
    O307    O    0.41275   0.83964   0.01748   1.000
    O308    O    0.36869   0.80323   0.04558   1.000
    O309    O    0.35595   0.83745   0.99406   1.000
    O310    O    0.38074   0.75960   0.99999   1.000
    O311    O    0.91275   0.83964   0.01745   1.000
    O312    O    0.86869   0.80323   0.04558   1.000
    O313    O    0.85595   0.83745   0.99406   1.000
    O314    O    0.88074   0.75960   0.99999   1.000
    O315    O    0.11928   0.24038   0.00001   1.000
    O316    O    0.82170   0.11696   0.06491   1.000
    O317    O    0.86366   0.19921   0.98396   1.000
    O318    O    0.32170   0.11696   0.06490   1.000
    O319    O    0.36366   0.19921   0.98396   1.000
    O320    O    0.55820   0.64901   0.04888   1.000
    O321    O    0.05820   0.64901   0.04890   1.000
    O322    O    0.68180   0.15220   0.06063   1.000
    O323    O    0.64406   0.16253   0.00594   1.000
    O324    O    0.67275   0.09197   0.01341   1.000
    O325    O    0.18180   0.15220   0.06063   1.000
    O326    O    0.14406   0.16253   0.00594   1.000
    O327    O    0.17275   0.09197   0.01340   1.000
    O328    O    0.21520   0.53690   0.04485   1.000
    O329    O    0.24428   0.62507   0.05795   1.000
    O330    O    0.28004   0.59961   0.01704   1.000
    O331    O    0.71521   0.53690   0.04485   1.000
    O332    O    0.74428   0.62507   0.05795   1.000
    O333    O    0.78004   0.59961   0.01704   1.000
    O334    O    0.65795   0.47587   0.06753   1.000
    O335    O    0.15795   0.47587   0.06753   1.000
    O336    O    0.59618   0.73536   0.06032   1.000
    O337    O    0.65638   0.81933   0.07655   1.000
    O338    O    0.63634   0.80075   0.01605   1.000
    O339    O    0.09618   0.73536   0.06032   1.000
    O340    O    0.15638   0.81933   0.07655   1.000
    O341    O    0.13634   0.80075   0.01605   1.000
    O342    O    0.03103   0.68999   0.06569   1.000
    O343    O    0.53103   0.68999   0.06569   1.000
    O344    O    0.92709   0.50180   0.09124   1.000
    O345    O    0.42709   0.50180   0.09124   1.000
    O346    O    0.56154   0.66183   0.10673   1.000
    O347    O    0.06155   0.66183   0.10673   1.000
    O348    O    0.23925   0.10781   0.10193   1.000
    O349    O    0.73925   0.10781   0.10195   1.000
    O350    O    0.23138   0.94751   0.10662   1.000
    O351    O    0.73138   0.94751   0.10663   1.000
    O352    O    0.34739   0.35557   0.12110   1.000
    O353    O    0.84739   0.35557   0.12110   1.000
    O354    O    0.34962   0.05138   0.13436   1.000
    O355    O    0.24634   0.03143   0.17135   1.000
    O356    O    0.84962   0.05138   0.13437   1.000
    O357    O    0.74634   0.03143   0.17136   1.000
    O358    O    0.90337   0.43059   0.12787   1.000
    O359    O    0.96711   0.51193   0.13977   1.000
    O360    O    0.40337   0.43059   0.12787   1.000
    O361    O    0.46711   0.51193   0.13977   1.000
    O362    O    0.87991   0.35288   0.17164   1.000
    O363    O    0.37991   0.35288   0.17164   1.000
    O364    O    0.03280   0.59144   0.15306   1.000
    O365    O    0.53280   0.59144   0.15306   1.000
    O366    O    0.94167   0.06859   0.18504   1.000
    O367    O    0.44167   0.06859   0.18504   1.000
    O368    O    0.50619   0.51622   0.19655   1.000
    O369    O    0.00619   0.51622   0.19655   1.000
    O370    O    0.56470   0.18816   0.18745   1.000
    O371    O    0.06470   0.18816   0.18745   1.000
    O372    O    0.53273   0.22586   0.19935   1.000
    O373    O    0.03273   0.22586   0.19935   1.000
    O374    O    0.20663   0.36713   0.22188   1.000
    O375    O    0.70664   0.36713   0.22188   1.000
    O376    O    0.35771   0.27223   0.21147   1.000
    O377    O    0.41900   0.35707   0.22830   1.000
    O378    O    0.85771   0.27223   0.21147   1.000
    O379    O    0.91900   0.35707   0.22830   1.000
    O380    O    0.00479   0.13608   0.21023   1.000
    O381    O    0.06119   0.20411   0.24493   1.000
    O382    O    0.50479   0.13608   0.21023   1.000
    O383    O    0.56119   0.20411   0.24493   1.000
    O384    O    0.96339   0.04863   0.24033   1.000
    O385    O    0.46339   0.04863   0.24033   1.000
    O386    O    0.31120   0.20412   0.25508   1.000
    O387    O    0.81120   0.20412   0.25508   1.000
    O388    O    0.48155   0.43906   0.24132   1.000
    O389    O    0.53739   0.51449   0.24840   1.000
    O390    O    0.98155   0.43906   0.24132   1.000
    O391    O    0.03739   0.51449   0.24840   1.000
    O392    O    0.21339   0.04865   0.25965   1.000
    O393    O    0.71339   0.04865   0.25965   1.000
    O394    O    0.78739   0.51446   0.25158   1.000
    O395    O    0.28739   0.51447   0.25158   1.000
    O396    O    0.73154   0.43904   0.25866   1.000
    O397    O    0.66899   0.35705   0.27167   1.000
    O398    O    0.23154   0.43905   0.25866   1.000
    O399    O    0.16899   0.35705   0.27167   1.000
    O400    O    0.95664   0.36715   0.27797   1.000
    O401    O    0.45664   0.36715   0.27797   1.000
    O402    O    0.49634   0.03142   0.32863   1.000
    O403    O    0.99634   0.03142   0.32863   1.000
    O404    O    0.75619   0.51620   0.30344   1.000
    O405    O    0.25619   0.51620   0.30344   1.000
    O406    O    0.60770   0.27221   0.28852   1.000
    O407    O    0.10770   0.27221   0.28852   1.000
    O408    O    0.75479   0.13610   0.28975   1.000
    O409    O    0.69168   0.06861   0.31494   1.000
    O410    O    0.25480   0.13610   0.28975   1.000
    O411    O    0.19168   0.06861   0.31490   1.000
    O412    O    0.78275   0.22587   0.30066   1.000
    O413    O    0.81471   0.18817   0.31255   1.000
    O414    O    0.28275   0.22587   0.30066   1.000
    O415    O    0.31471   0.18817   0.31255   1.000
    O416    O    0.62990   0.35287   0.32830   1.000
    O417    O    0.12990   0.35287   0.32830   1.000
    O418    O    0.28280   0.59143   0.34691   1.000
    O419    O    0.21711   0.51192   0.36023   1.000
    O420    O    0.78280   0.59142   0.34691   1.000
    O421    O    0.71711   0.51192   0.36023   1.000
    O422    O    0.09963   0.05139   0.36558   1.000
    O423    O    0.59963   0.05139   0.36563   1.000
    O424    O    0.81155   0.66182   0.39323   1.000
    O425    O    0.31155   0.66182   0.39323   1.000
    O426    O    0.65337   0.43058   0.37208   1.000
    O427    O    0.59739   0.35556   0.37886   1.000
    O428    O    0.15337   0.43058   0.37208   1.000
    O429    O    0.09739   0.35556   0.37886   1.000
    O430    O    0.67708   0.50179   0.40876   1.000
    O431    O    0.17708   0.50179   0.40876   1.000
    O432    O    0.98138   0.94750   0.39336   1.000
    O433    O    0.98925   0.10781   0.39805   1.000
    O434    O    0.07170   0.11696   0.43509   1.000
    O435    O    0.05284   0.99830   0.44368   1.000
    O436    O    0.48138   0.94750   0.39336   1.000
    O437    O    0.48925   0.10781   0.39805   1.000
    O438    O    0.57170   0.11696   0.43509   1.000
    O439    O    0.55284   0.99830   0.44368   1.000
    O440    O    0.40638   0.81933   0.42343   1.000
    O441    O    0.90638   0.81932   0.42343   1.000
    O442    O    0.93180   0.15220   0.43937   1.000
    O443    O    0.43180   0.15220   0.43937   1.000
    O444    O    0.40795   0.47586   0.43243   1.000
    O445    O    0.90795   0.47586   0.43243   1.000
    O446    O    0.11869   0.80322   0.45441   1.000
    O447    O    0.61869   0.80322   0.45441   1.000
    O448    O    0.99429   0.62507   0.44205   1.000
    O449    O    0.49429   0.62507   0.44205   1.000
    O450    O    0.28103   0.68998   0.43431   1.000
    O451    O    0.34618   0.73535   0.43968   1.000
    O452    O    0.30820   0.64901   0.45110   1.000
    O453    O    0.78103   0.68998   0.43431   1.000
    O454    O    0.84618   0.73535   0.43968   1.000
    O455    O    0.80820   0.64901   0.45110   1.000
    O456    O    0.88635   0.80075   0.48395   1.000
    O457    O    0.38635   0.80075   0.48395   1.000
    O458    O    0.46521   0.53690   0.45513   1.000
    O459    O    0.43517   0.43728   0.47217   1.000
    O460    O    0.96521   0.53690   0.45513   1.000
    O461    O    0.93517   0.43728   0.47217   1.000
    O462    O    0.53005   0.59961   0.48296   1.000
    O463    O    0.03005   0.59961   0.48296   1.000
    O464    O    0.92275   0.09197   0.48660   1.000
    O465    O    0.89406   0.16253   0.49406   1.000
    O466    O    0.42275   0.09197   0.48660   1.000
    O467    O    0.39406   0.16253   0.49406   1.000
    O468    O    0.61365   0.19921   0.51605   1.000
    O469    O    0.11366   0.19921   0.51605   1.000
    O470    O    0.66275   0.83964   0.48249   1.000
    O471    O    0.16275   0.83964   0.48252   1.000
    O472    O    0.90253   0.34101   0.48813   1.000
    O473    O    0.86927   0.24038   0.49999   1.000
    O474    O    0.40253   0.34101   0.48813   1.000
    O475    O    0.36928   0.24038   0.49999   1.000
    O476    O    0.63074   0.75960   0.50001   1.000
    O477    O    0.60595   0.83745   0.50594   1.000
    O478    O    0.13074   0.75960   0.50001   1.000
    O479    O    0.10595   0.83745   0.50594   1.000
    O480    O    0.46997   0.40037   0.51704   1.000
    O481    O    0.96824   0.40037   0.51704   1.000
    O482    O    0.07725   0.90800   0.51340   1.000
    O483    O    0.57725   0.90800   0.51340   1.000
    O484    O    0.94716   0.00166   0.55631   1.000
    O485    O    0.44716   0.00166   0.55631   1.000
    O486    O    0.59749   0.65897   0.51188   1.000
    O487    O    0.56485   0.56270   0.52784   1.000
    O488    O    0.09749   0.65897   0.51188   1.000
    O489    O    0.06485   0.56270   0.52784   1.000
    O490    O    0.83726   0.16034   0.51747   1.000
    O491    O    0.88132   0.19676   0.54555   1.000
    O492    O    0.33726   0.16034   0.51747   1.000
    O493    O    0.38132   0.19676   0.54555   1.000
    O494    O    0.92830   0.88300   0.56491   1.000
    O495    O    0.42830   0.88300   0.56491   1.000
    O496    O    0.19180   0.35095   0.54888   1.000
    O497    O    0.69180   0.35095   0.54888   1.000
    O498    O    0.56821   0.84778   0.56063   1.000
    O499    O    0.06821   0.84778   0.56063   1.000
    O500    O    0.53481   0.46308   0.54487   1.000
    O501    O    0.50573   0.37492   0.55795   1.000
    O502    O    0.03308   0.46308   0.54487   1.000
    O503    O    0.00000   0.37492   0.55795   1.000
    O504    O    0.59206   0.52412   0.56756   1.000
    O505    O    0.09206   0.52412   0.56756   1.000
    O506    O    0.15382   0.26460   0.56029   1.000
    O507    O    0.09362   0.18064   0.57657   1.000
    O508    O    0.65382   0.26460   0.56029   1.000
    O509    O    0.59362   0.18064   0.57657   1.000
    O510    O    0.21898   0.30997   0.56566   1.000
    O511    O    0.71897   0.30997   0.56566   1.000
    O512    O    0.32292   0.49817   0.59125   1.000
    O513    O    0.82292   0.49817   0.59125   1.000
    O514    O    0.18846   0.33813   0.60674   1.000
    O515    O    0.68846   0.33813   0.60674   1.000
    O516    O    0.51075   0.89217   0.60196   1.000
    O517    O    0.01075   0.89217   0.60196   1.000
    O518    O    0.51862   0.05246   0.60664   1.000
    O519    O    0.01862   0.05246   0.60664   1.000
    O520    O    0.90261   0.64440   0.62110   1.000
    O521    O    0.40261   0.64440   0.62110   1.000
    O522    O    0.90037   0.94857   0.63436   1.000
    O523    O    0.00365   0.96854   0.67137   1.000
    O524    O    0.40037   0.94857   0.63438   1.000
    O525    O    0.50365   0.96854   0.67137   1.000
    O526    O    0.84663   0.56938   0.62788   1.000
    O527    O    0.78290   0.48803   0.63978   1.000
    O528    O    0.34663   0.56938   0.62788   1.000
    O529    O    0.28290   0.48803   0.63978   1.000
    O530    O    0.87010   0.64709   0.67165   1.000
    O531    O    0.37010   0.64709   0.67165   1.000
    O532    O    0.21721   0.40853   0.65310   1.000
    O533    O    0.71721   0.40852   0.65310   1.000
    O534    O    0.80832   0.93135   0.68503   1.000
    O535    O    0.30832   0.93135   0.68504   1.000
    O536    O    0.24382   0.48375   0.69658   1.000
    O537    O    0.74382   0.48375   0.69658   1.000
    O538    O    0.68529   0.81179   0.68744   1.000
    O539    O    0.18529   0.81179   0.68744   1.000
    O540    O    0.21726   0.77409   0.69934   1.000
    O541    O    0.71726   0.77409   0.69934   1.000
    O542    O    0.54336   0.63280   0.72189   1.000
    O543    O    0.04336   0.63280   0.72189   1.000
    O544    O    0.89230   0.72775   0.71147   1.000
    O545    O    0.83101   0.64290   0.72831   1.000
    O546    O    0.39230   0.72775   0.71144   1.000
    O547    O    0.33101   0.64291   0.72831   1.000
    O548    O    0.24521   0.86386   0.71023   1.000
    O549    O    0.18881   0.79584   0.74492   1.000
    O550    O    0.74521   0.86386   0.71023   1.000
    O551    O    0.68880   0.79584   0.74492   1.000
    O552    O    0.28661   0.95131   0.74034   1.000
    O553    O    0.78661   0.95131   0.74034   1.000
    O554    O    0.43881   0.79585   0.75505   1.000
    O555    O    0.93881   0.79585   0.75508   1.000
    O556    O    0.26846   0.56091   0.74134   1.000
    O557    O    0.21262   0.48549   0.74843   1.000
    O558    O    0.76846   0.56091   0.74134   1.000
    O559    O    0.71262   0.48549   0.74843   1.000
    O560    O    0.53661   0.95133   0.75967   1.000
    O561    O    0.03661   0.95133   0.75967   1.000
    O562    O    0.96261   0.48547   0.75159   1.000
    O563    O    0.46262   0.48547   0.75159   1.000
    O564    O    0.01846   0.56089   0.75867   1.000
    O565    O    0.08101   0.64289   0.77169   1.000
    O566    O    0.51846   0.56089   0.75867   1.000
    O567    O    0.58101   0.64289   0.77169   1.000
    O568    O    0.29337   0.63282   0.77813   1.000
    O569    O    0.79337   0.63282   0.77813   1.000
    O570    O    0.25366   0.96853   0.82864   1.000
    O571    O    0.75366   0.96853   0.82864   1.000
    O572    O    0.99382   0.48373   0.80344   1.000
    O573    O    0.49382   0.48373   0.80315   1.000
    O574    O    0.64230   0.72773   0.78854   1.000
    O575    O    0.14230   0.72773   0.78854   1.000
    O576    O    0.49522   0.86388   0.78977   1.000
    O577    O    0.55834   0.93137   0.81495   1.000
    O578    O    0.99522   0.86388   0.78977   1.000
    O579    O    0.05834   0.93137   0.81495   1.000
    O580    O    0.46727   0.77411   0.80065   1.000
    O581    O    0.43530   0.81180   0.81256   1.000
    O582    O    0.96727   0.77411   0.80065   1.000
    O583    O    0.93530   0.81180   0.81256   1.000
    O584    O    0.12010   0.64708   0.82836   1.000
    O585    O    0.62010   0.64708   0.82836   1.000
    O586    O    0.46721   0.40851   0.84660   1.000
    O587    O    0.53290   0.48802   0.85994   1.000
    O588    O    0.96721   0.40851   0.84689   1.000
    O589    O    0.03290   0.48802   0.86023   1.000
    O590    O    0.65038   0.94858   0.86562   1.000
    O591    O    0.15038   0.94858   0.86562   1.000
    O592    O    0.93846   0.33812   0.89320   1.000
    O593    O    0.43846   0.33812   0.89323   1.000
    O594    O    0.59663   0.56937   0.87213   1.000
    O595    O    0.65261   0.64439   0.87891   1.000
    O596    O    0.09663   0.56937   0.87213   1.000
    O597    O    0.15261   0.64439   0.87891   1.000
    O598    O    0.57292   0.49816   0.90874   1.000
    O599    O    0.07292   0.49816   0.90874   1.000
    O600    O    0.26862   0.05245   0.89338   1.000
    O601    O    0.26075   0.89215   0.89804   1.000
    O602    O    0.17830   0.88300   0.93510   1.000
    O603    O    0.19716   0.00166   0.94369   1.000
    O604    O    0.76862   0.05245   0.89338   1.000
    O605    O    0.76075   0.89215   0.89805   1.000
    O606    O    0.67830   0.88300   0.93510   1.000
    O607    O    0.69716   0.00166   0.94370   1.000
    O608    O    0.84362   0.18063   0.92344   1.000
    O609    O    0.34362   0.18063   0.92344   1.000
    O610    O    0.31821   0.84777   0.93935   1.000
    O611    O    0.81821   0.84777   0.93937   1.000
    O612    O    0.34207   0.52412   0.93246   1.000
    O613    O    0.84207   0.52412   0.93246   1.000
    O614    O    0.13133   0.19675   0.95442   1.000
    O615    O    0.63133   0.19676   0.95442   1.000
    O616    O    0.75573   0.37491   0.94205   1.000
    O617    O    0.25573   0.37491   0.94205   1.000
    O618    O    0.96898   0.30996   0.93429   1.000
    O619    O    0.90382   0.26460   0.93966   1.000
    O620    O    0.94180   0.35094   0.95108   1.000
    O621    O    0.46898   0.30996   0.93432   1.000
    O622    O    0.40382   0.26460   0.93968   1.000
    O623    O    0.44180   0.35094   0.95110   1.000
    O624    O    0.78481   0.46308   0.95513   1.000
    O625    O    0.81485   0.56270   0.97218   1.000
    O626    O    0.28481   0.46308   0.95513   1.000
    O627    O    0.31485   0.56270   0.97218   1.000
    O628    O    0.08727   0.16034   0.98250   1.000
    O629    O    0.58727   0.16034   0.98253   1.000
    O630    O    0.84749   0.65897   0.98813   1.000
    O631    O    0.34749   0.65897   0.98813   1.000
    O632    O    0.44350   0.86882   0.66461   1.000
    O633    O    0.94350   0.86882   0.66465   1.000
    O634    O    0.01979   0.95238   0.55471   1.000
    O635    O    0.51979   0.95238   0.55471   1.000
    O636    O    0.30650   0.13115   0.16463   1.000
    O637    O    0.80650   0.13115   0.16464   1.000
    O638    O    0.23020   0.04758   0.05470   1.000
    O639    O    0.73020   0.04758   0.05472   1.000
    O640    O    0.05649   0.13114   0.33536   1.000
    O641    O    0.55649   0.13114   0.33536   1.000
    O642    O    0.48020   0.04759   0.44528   1.000
    O643    O    0.98020   0.04759   0.44528   1.000
    O644    O    0.19351   0.86881   0.83536   1.000
    O645    O    0.69350   0.86881   0.83536   1.000
    O646    O    0.26980   0.95238   0.94528   1.000
    O647    O    0.76980   0.95238   0.94528   1.000
loop_
    _geom_bond_atom_site_label_1
    _geom_bond_atom_site_label_2
    _geom_bond_distance
    _geom_bond_site_symmetry_2
    _ccdc_geom_bond_type
    C281   O296      1.27043      .   S
    C3     O296      1.27043  1_545   S
    C281   O297      0.64287  1_554   S
    C215   O297      0.64287      .   S
    C280   O298      1.27029      .   S
    C2     O298      1.27029  1_545   S
    C280   O299      0.64286  1_554   S
    C214   O299      0.64286      .   S
    C159   O300      0.69275      .   S
    C249   O300      0.69275      .   S
    C159   O301      0.69993      .   S
    C161   O301      0.69993      .   S
    C159   O302      0.70035  1_554   S
    C163   O302      0.70035      .   S
    C158   O303      0.69280      .   S
    C248   O303      0.69280      .   S
    C158   O304      0.69993      .   S
    C160   O304      0.69993      .   S
    C158   O305      0.70034  1_554   S
    C162   O305      0.70034      .   S
    C249   O306      0.71101  1_554   S
    C157   O306      0.71101      .   S
    C216   O307      0.55028      .   S
    C96    O307      0.55028      .   S
    C216   O308      0.55067      .   S
    C98    O308      0.55067      .   S
    C216   O309      0.76307  1_554   S
    C214   O309      0.76307      .   S
    C216   O310      0.71115  1_554   S
    C284   O310      0.71115      .   S
    C217   O311      0.55027      .   S
    C97    O311      0.55027      .   S
    C217   O312      0.55067      .   S
    C99    O312      0.55067      .   S
    C217   O313      0.76306  1_554   S
    C215   O313      0.76306      .   S
    C217   O314      0.71115  1_554   S
    C285   O314      0.71115      .   S
    C248   O315      0.71116      .   S
    C156   O315      0.71116  1_556   S
    C293   O316      1.21932      .   S
    C3     O316      1.21932      .   S
    C293   O317      0.63660  1_554   S
    C209   O317      0.63660      .   S
    C292   O318      1.21920      .   S
    C2     O318      1.21920      .   S
    C292   O319      0.63660  1_554   S
    C208   O319      0.63660      .   S
    C41    O320      0.55123      .   S
    C147   O320      0.55123      .   S
    C40    O321      0.55099      .   S
    C146   O321      0.55099      .   S
    C155   O322      0.63061      .   S
    C247   O322      0.63061      .   S
    C155   O323      0.76308      .   S
    C157   O323      0.76308  1_556   S
    C155   O324      0.64289      .   S
    C245   O324      0.64289  1_556   S
    C154   O325      0.63061      .   S
    C246   O325      0.63061      .   S
    C154   O326      0.76308      .   S
    C156   O326      0.76308  1_556   S
    C154   O327      0.64296      .   S
    C244   O327      0.64296  1_556   S
    C222   O328      0.69849      .   S
    C160   O328      0.69849      .   S
    C222   O329      0.54439      .   S
    C102   O329      0.54439      .   S
    C222   O330      0.70029      .   S
    C218   O330      0.70029  1_556   S
    C223   O331      0.69849      .   S
    C161   O331      0.69849      .   S
    C223   O332      0.54439      .   S
    C103   O332      0.54439      .   S
    C223   O333      0.70030      .   S
    C219   O333      0.70030  1_556   S
    C161   O334      0.54517      .   S
    C53    O334      0.54517      .   S
    C160   O335      0.54517      .   S
    C52    O335      0.54517      .   S
    C149   O336      0.75968      .   S
    C147   O336      0.75968      .   S
    C149   O337      0.63334      .   S
    C255   O337      0.63334      .   S
    C149   O338      0.63659      .   S
    C257   O338      0.63659  1_556   S
    C148   O339      0.75968      .   S
    C146   O339      0.75968      .   S
    C148   O340      0.63334      .   S
    C254   O340      0.63334      .   S
    C148   O341      0.63659      .   S
    C256   O341      0.63659  1_556   S
    C42    O342      0.55228      .   S
    C146   O342      0.55228      .   S
    C43    O343      0.55228      .   S
    C147   O343      0.55228      .   S
    C37    O344      0.54317      .   S
    C143   O344      0.54317      .   S
    C36    O345      0.54317      .   S
    C142   O345      0.54317      .   S
    C147   O346      0.71231      .   S
    C253   O346      0.71231      .   S
    C146   O347      0.71231      .   S
    C252   O347      0.71231      .   S
    C246   O348      1.30926      .   S
    C2     O348      1.30926      .   S
    C247   O349      1.30927      .   S
    C3     O349      1.30927      .   S
    C254   O350      1.23565      .   S
    C2     O350      1.23565  1_545   S
    C255   O351      1.23566      .   S
    C3     O351      1.23566  1_545   S
    C38    O352      0.54362      .   S
    C144   O352      0.54362      .   S
    C39    O353      0.54362      .   S
    C145   O353      0.54362      .   S
    C2     O354      1.20953      .   S
    C276   O354      1.20953      .   S
    C2     O355      1.23076      .   S
    C250   O355      1.23076      .   S
    C3     O356      1.20947      .   S
    C277   O356      1.20947      .   S
    C3     O357      1.23060      .   S
    C251   O357      1.23060      .   S
    C143   O358      0.69735      .   S
    C145   O358      0.69735      .   S
    C143   O359      0.70083      .   S
    C140   O359      0.70083  1_455   S
    C142   O360      0.69736      .   S
    C144   O360      0.69736      .   S
    C142   O361      0.70082      .   S
    C141   O361      0.70082      .   S
    C145   O362      0.69541      .   S
    C135   O362      0.69541      .   S
    C144   O363      0.69541      .   S
    C134   O363      0.69541      .   S
    C252   O364      0.68804      .   S
    C140   O364      0.68804      .   S
    C253   O365      0.68804      .   S
    C141   O365      0.68804      .   S
    C277   O366      0.63726      .   S
    C183   O366      0.63726      .   S
    C276   O367      0.63726      .   S
    C182   O367      0.63726      .   S
    C141   O368      0.70219      .   S
    C139   O368      0.70219      .   S
    C140   O369      0.70220      .   S
    C138   O369      0.70220      .   S
    C69    O370      0.55110      .   S
    C181   O370      0.55110      .   S
    C68    O371      0.55110      .   S
    C180   O371      0.55110      .   S
    C71    O372      0.54907      .   S
    C181   O372      0.54907      .   S
    C70    O373      0.54908      .   S
    C180   O373      0.54908      .   S
    C56    O374      0.54468      .   S
    C166   O374      0.54468      .   S
    C57    O375      0.54468      .   S
    C167   O375      0.54468      .   S
    C134   O376      0.70180      .   S
    C242   O376      0.70180      .   S
    C134   O377      0.69947      .   S
    C136   O377      0.69947      .   S
    C135   O378      0.70179      .   S
    C243   O378      0.70179      .   S
    C135   O379      0.69947      .   S
    C137   O379      0.69947      .   S
    C180   O380      0.76062      .   S
    C183   O380      0.76062  1_655   S
    C180   O381      0.72431      .   S
    C260   O381      0.72431      .   S
    C181   O382      0.76062      .   S
    C182   O382      0.76062      .   S
    C181   O383      0.72431      .   S
    C261   O383      0.72431      .   S
    C183   O384      0.63187      .   S
    C269   O384      0.63187      .   S
    C182   O385      0.63187      .   S
    C268   O385      0.63187      .   S
    C242   O386      0.72429      .   S
    C150   O386      0.72429      .   S
    C243   O387      0.72429      .   S
    C151   O387      0.72429      .   S
    C139   O388      0.69757      .   S
    C136   O388      0.69757      .   S
    C139   O389      0.54488      .   S
    C35    O389      0.54488      .   S
    C138   O390      0.69757  1_455   S
    C137   O390      0.69757      .   S
    C138   O391      0.54487      .   S
    C34    O391      0.54487      .   S
    C250   O392      0.63154      .   S
    C152   O392      0.63154      .   S
    C251   O393      0.63154      .   S
    C153   O393      0.63154      .   S
    C59    O394      0.54482      .   S
    C169   O394      0.54482      .   S
    C58    O395      0.54482      .   S
    C168   O395      0.54482      .   S
    C167   O396      0.69754      .   S
    C169   O396      0.69754      .   S
    C167   O397      0.69935      .   S
    C165   O397      0.69935      .   S
    C166   O398      0.69754      .   S
    C168   O398      0.69754      .   S
    C166   O399      0.69935      .   S
    C164   O399      0.69935      .   S
    C137   O400      0.54247      .   S
    C33    O400      0.54247      .   S
    C136   O401      0.54246      .   S
    C32    O401      0.54246      .   S
    C268   O402      1.23062      .   S
    C5     O402      1.23062      .   S
    C269   O403      1.23063      .   S
    C4     O403      1.23063  1_455   S
    C169   O404      0.70234      .   S
    C171   O404      0.70234      .   S
    C168   O405      0.70234      .   S
    C170   O405      0.70234      .   S
    C261   O406      0.70176      .   S
    C165   O406      0.70176      .   S
    C260   O407      0.70175      .   S
    C164   O407      0.70175      .   S
    C153   O408      0.76064      .   S
    C151   O408      0.76064      .   S
    C153   O409      0.63757      .   S
    C259   O409      0.63757      .   S
    C152   O410      0.76064      .   S
    C150   O410      0.76064      .   S
    C152   O411      0.63702      .   S
    C258   O411      0.63702      .   S
    C151   O412      0.54908      .   S
    C47    O412      0.54908      .   S
    C151   O413      0.55108      .   S
    C45    O413      0.55108      .   S
    C150   O414      0.54907      .   S
    C46    O414      0.54907      .   S
    C150   O415      0.55108      .   S
    C44    O415      0.55108      .   S
    C165   O416      0.69494      .   S
    C175   O416      0.69494      .   S
    C164   O417      0.69494      .   S
    C174   O417      0.69494      .   S
    C170   O418      0.68787      .   S
    C270   O418      0.68787      .   S
    C170   O419      0.70081      .   S
    C172   O419      0.70081      .   S
    C171   O420      0.68787      .   S
    C271   O420      0.68787      .   S
    C171   O421      0.70081      .   S
    C173   O421      0.70081      .   S
    C258   O422      1.20971      .   S
    C4     O422      1.20971      .   S
    C259   O423      1.20947      .   S
    C5     O423      1.20947      .   S
    C271   O424      0.71298      .   S
    C177   O424      0.71298      .   S
    C270   O425      0.71297      .   S
    C176   O425      0.71297      .   S
    C175   O426      0.69758      .   S
    C173   O426      0.69758      .   S
    C175   O427      0.54408      .   S
    C63    O427      0.54408      .   S
    C174   O428      0.69758      .   S
    C172   O428      0.69758      .   S
    C174   O429      0.54408      .   S
    C62    O429      0.54408      .   S
    C173   O430      0.54316      .   S
    C61    O430      0.54316      .   S
    C172   O431      0.54316      .   S
    C60    O431      0.54316      .   S
    C4     O432      1.23568  1_445   S
    C273   O432      1.23568      .   S
    C4     O433      1.30929  1_455   S
    C265   O433      1.30929      .   S
    C4     O434      1.21938      .   S
    C238   O434      1.21938      .   S
    C4     O435      1.27036  1_545   S
    C226   O435      1.27036      .   S
    C5     O436      1.23568  1_545   S
    C272   O436      1.23568      .   S
    C5     O437      1.30928      .   S
    C264   O437      1.30928      .   S
    C5     O438      1.21938      .   S
    C239   O438      1.21938      .   S
    C5     O439      1.27036  1_545   S
    C227   O439      1.27036      .   S
    C272   O440      0.63338      .   S
    C178   O440      0.63338      .   S
    C273   O441      0.63338      .   S
    C179   O441      0.63338      .   S
    C265   O442      0.63068      .   S
    C185   O442      0.63068      .   S
    C264   O443      0.63068      .   S
    C184   O443      0.63068      .   S
    C76    O444      0.54518      .   S
    C190   O444      0.54518      .   S
    C77    O445      0.54517      .   S
    C191   O445      0.54517      .   S
    C26    O446      0.55066      .   S
    C126   O446      0.55066      .   S
    C27    O447      0.55066      .   S
    C127   O447      0.55066      .   S
    C30    O448      0.54438      .   S
    C132   O448      0.54438      .   S
    C31    O449      0.54438      .   S
    C133   O449      0.54438      .   S
    C176   O450      0.55228      .   S
    C66    O450      0.55228      .   S
    C176   O451      0.75967      .   S
    C178   O451      0.75967      .   S
    C176   O452      0.55098      .   S
    C64    O452      0.55098      .   S
    C177   O453      0.55227      .   S
    C67    O453      0.55227      .   S
    C177   O454      0.75967      .   S
    C179   O454      0.75967      .   S
    C177   O455      0.55099      .   S
    C65    O455      0.55099      .   S
    C179   O456      0.63668      .   S
    C275   O456      0.63668      .   S
    C178   O457      0.63668      .   S
    C274   O457      0.63668      .   S
    C190   O458      0.69852      .   S
    C133   O458      0.69852      .   S
    C190   O459      0.70011      .   S
    C188   O459      0.70011      .   S
    C191   O460      0.69853      .   S
    C132   O460      0.69853      .   S
    C191   O461      0.70011      .   S
    C189   O461      0.70011      .   S
    C133   O462      0.70048      .   S
    C129   O462      0.70048      .   S
    C132   O463      0.70049  1_655   S
    C128   O463      0.70049      .   S
    C185   O464      0.64295      .   S
    C263   O464      0.64295      .   S
    C185   O465      0.76299      .   S
    C187   O465      0.76299      .   S
    C184   O466      0.64295      .   S
    C262   O466      0.64295      .   S
    C184   O467      0.76299      .   S
    C186   O467      0.76299      .   S
    C239   O468      0.63669      .   S
    C119   O468      0.63669      .   S
    C238   O469      0.63669      .   S
    C118   O469      0.63669      .   S
    C25    O470      0.55029      .   S
    C127   O470      0.55029      .   S
    C24    O471      0.55028      .   S
    C126   O471      0.55028      .   S
    C267   O472      0.69279      .   S
    C189   O472      0.69279      .   S
    C267   O473      0.71112      .   S
    C187   O473      0.71112      .   S
    C266   O474      0.69279      .   S
    C188   O474      0.69279      .   S
    C266   O475      0.71112      .   S
    C186   O475      0.71112      .   S
    C127   O476      0.71122      .   S
    C231   O476      0.71122      .   S
    C127   O477      0.76312      .   S
    C125   O477      0.76312      .   S
    C126   O478      0.71122      .   S
    C230   O478      0.71122      .   S
    C126   O479      0.76312      .   S
    C124   O479      0.76312      .   S
    C188   O480      0.70036      .   S
    C192   O480      0.70036      .   S
    C189   O481      0.67739      .   S
    C193   O481      0.67739  1_455   S
    C226   O482      0.64294      .   S
    C124   O482      0.64294      .   S
    C227   O483      0.64295      .   S
    C125   O483      0.64295      .   S
    C263   O484      1.27042      .   S
    C1     O484      1.27042  1_565   S
    C262   O485      1.27042      .   S
    C0     O485      1.27042  1_565   S
    C129   O486      0.69279      .   S
    C231   O486      0.69279      .   S
    C129   O487      0.70006      .   S
    C131   O487      0.70006      .   S
    C128   O488      0.69279      .   S
    C230   O488      0.69279      .   S
    C128   O489      0.70006      .   S
    C130   O489      0.70006      .   S
    C187   O490      0.55028      .   S
    C73    O490      0.55028      .   S
    C187   O491      0.55034      .   S
    C75    O491      0.55034      .   S
    C186   O492      0.55029      .   S
    C72    O492      0.55029      .   S
    C186   O493      0.55033      .   S
    C74    O493      0.55033      .   S
    C275   O494      1.21940      .   S
    C1     O494      1.21940      .   S
    C274   O495      1.21940      .   S
    C0     O495      1.21940      .   S
    C16    O496      0.55060      .   S
    C116   O496      0.55060      .   S
    C17    O497      0.55060      .   S
    C117   O497      0.55060      .   S
    C125   O498      0.63066      .   S
    C229   O498      0.63066      .   S
    C124   O499      0.63066      .   S
    C228   O499      0.63066      .   S
    C192   O500      0.69853      .   S
    C131   O500      0.69853      .   S
    C192   O501      0.54443      .   S
    C78    O501      0.54443      .   S
    C193   O502      0.71100      .   S
    C130   O502      0.71100      .   S
    C193   O503      0.53037      .   S
    C79    O503      0.53037      .   S
    C131   O504      0.54501      .   S
    C29    O504      0.54501      .   S
    C130   O505      0.54500      .   S
    C28    O505      0.54500      .   S
    C118   O506      0.75955      .   S
    C116   O506      0.75955      .   S
    C118   O507      0.63339      .   S
    C236   O507      0.63339      .   S
    C119   O508      0.75956      .   S
    C117   O508      0.75956      .   S
    C119   O509      0.63338      .   S
    C237   O509      0.63338      .   S
    C18    O510      0.55219      .   S
    C116   O510      0.55219      .   S
    C19    O511      0.55220      .   S
    C117   O511      0.55220      .   S
    C12    O512      0.54323      .   S
    C112   O512      0.54323      .   S
    C13    O513      0.54323      .   S
    C113   O513      0.54323      .   S
    C116   O514      0.71353      .   S
    C234   O514      0.71353      .   S
    C117   O515      0.71352      .   S
    C235   O515      0.71352      .   S
    C229   O516      1.30927      .   S
    C0     O516      1.30927      .   S
    C228   O517      1.30928      .   S
    C1     O517      1.30928  1_655   S
    C237   O518      1.23567      .   S
    C0     O518      1.23567  1_565   S
    C236   O519      1.23568      .   S
    C1     O519      1.23568  1_665   S
    C15    O520      0.54366      .   S
    C115   O520      0.54366      .   S
    C14    O521      0.54366      .   S
    C114   O521      0.54366      .   S
    C1     O522      1.20940      .   S
    C295   O522      1.20940      .   S
    C1     O523      1.23062  1_655   S
    C232   O523      1.23062      .   S
    C0     O524      1.20946      .   S
    C294   O524      1.20946      .   S
    C0     O525      1.23061      .   S
    C233   O525      1.23061      .   S
    C113   O526      0.69736      .   S
    C115   O526      0.69736      .   S
    C113   O527      0.70080      .   S
    C111   O527      0.70080      .   S
    C112   O528      0.69736      .   S
    C114   O528      0.69736      .   S
    C112   O529      0.70080      .   S
    C110   O529      0.70080      .   S
    C115   O530      0.69539      .   S
    C105   O530      0.69539      .   S
    C114   O531      0.69539      .   S
    C104   O531      0.69539      .   S
    C234   O532      0.68788      .   S
    C110   O532      0.68788      .   S
    C235   O533      0.68788      .   S
    C111   O533      0.68788      .   S
    C295   O534      0.63743      .   S
    C213   O534      0.63743      .   S
    C294   O535      0.63729      .   S
    C212   O535      0.63729      .   S
    C110   O536      0.70234      .   S
    C108   O536      0.70234      .   S
    C111   O537      0.70234      .   S
    C109   O537      0.70234      .   S
    C93    O538      0.55102      .   S
    C211   O538      0.55102      .   S
    C92    O539      0.55102      .   S
    C210   O539      0.55102      .   S
    C94    O540      0.54904      .   S
    C210   O540      0.54904      .   S
    C95    O541      0.54905      .   S
    C211   O541      0.54905      .   S
    C81    O542      0.54470      .   S
    C197   O542      0.54470      .   S
    C80    O543      0.54469      .   S
    C196   O543      0.54469      .   S
    C105   O544      0.70178      .   S
    C225   O544      0.70178      .   S
    C105   O545      0.69946      .   S
    C107   O545      0.69946      .   S
    C104   O546      0.70168      .   S
    C224   O546      0.70168      .   S
    C104   O547      0.69946      .   S
    C106   O547      0.69946      .   S
    C210   O548      0.76063      .   S
    C212   O548      0.76063      .   S
    C210   O549      0.72436      .   S
    C278   O549      0.72436      .   S
    C211   O550      0.76063      .   S
    C213   O550      0.76063      .   S
    C211   O551      0.72436      .   S
    C279   O551      0.72436      .   S
    C212   O552      0.63182      .   S
    C286   O552      0.63182      .   S
    C213   O553      0.63182      .   S
    C287   O553      0.63182      .   S
    C224   O554      0.72482      .   S
    C120   O554      0.72482      .   S
    C225   O555      0.72433      .   S
    C121   O555      0.72433      .   S
    C108   O556      0.69752      .   S
    C106   O556      0.69752      .   S
    C108   O557      0.54476      .   S
    C10    O557      0.54476      .   S
    C109   O558      0.69752      .   S
    C107   O558      0.69752      .   S
    C109   O559      0.54476      .   S
    C11    O559      0.54476      .   S
    C233   O560      0.63180      .   S
    C123   O560      0.63180      .   S
    C232   O561      0.63180      .   S
    C122   O561      0.63180      .   S
    C83    O562      0.54482      .   S
    C199   O562      0.54482      .   S
    C82    O563      0.54483      .   S
    C198   O563      0.54483      .   S
    C196   O564      0.69755      .   S
    C199   O564      0.69755  1_655   S
    C196   O565      0.69947      .   S
    C194   O565      0.69947      .   S
    C197   O566      0.69754      .   S
    C198   O566      0.69754      .   S
    C197   O567      0.69947      .   S
    C195   O567      0.69947      .   S
    C106   O568      0.54468      .   S
    C8     O568      0.54468      .   S
    C107   O569      0.54468      .   S
    C9     O569      0.54468      .   S
    C286   O570      1.23060      .   S
    C6     O570      1.23060      .   S
    C287   O571      1.23060      .   S
    C7     O571      1.23060      .   S
    C199   O572      0.70228      .   S
    C201   O572      0.70228      .   S
    C198   O573      0.69770      .   S
    C200   O573      0.69770      .   S
    C279   O574      0.70179      .   S
    C195   O574      0.70179      .   S
    C278   O575      0.70179      .   S
    C194   O575      0.70179      .   S
    C123   O576      0.76062      .   S
    C120   O576      0.76062      .   S
    C123   O577      0.63731      .   S
    C241   O577      0.63731      .   S
    C122   O578      0.76063  1_455   S
    C121   O578      0.76063      .   S
    C122   O579      0.63730      .   S
    C240   O579      0.63730      .   S
    C120   O580      0.54908      .   S
    C22    O580      0.54908      .   S
    C120   O581      0.55108      .   S
    C20    O581      0.55108      .   S
    C121   O582      0.54908      .   S
    C23    O582      0.54908      .   S
    C121   O583      0.55108      .   S
    C21    O583      0.55108      .   S
    C194   O584      0.69540      .   S
    C204   O584      0.69540      .   S
    C195   O585      0.69540      .   S
    C205   O585      0.69540      .   S
    C200   O586      0.68912      .   S
    C288   O586      0.68912      .   S
    C200   O587      0.70387      .   S
    C203   O587      0.70387      .   S
    C201   O588      0.68784      .   S
    C289   O588      0.68784      .   S
    C201   O589      0.70082  1_655   S
    C202   O589      0.70082      .   S
    C241   O590      1.20944      .   S
    C7     O590      1.20944      .   S
    C240   O591      1.20944      .   S
    C6     O591      1.20944      .   S
    C289   O592      0.71278      .   S
    C207   O592      0.71278      .   S
    C288   O593      0.71320      .   S
    C206   O593      0.71320      .   S
    C205   O594      0.69736      .   S
    C203   O594      0.69736      .   S
    C205   O595      0.54367      .   S
    C87    O595      0.54367      .   S
    C204   O596      0.69735      .   S
    C202   O596      0.69735      .   S
    C204   O597      0.54367      .   S
    C86    O597      0.54367      .   S
    C203   O598      0.54279      .   S
    C85    O598      0.54279      .   S
    C202   O599      0.54279      .   S
    C84    O599      0.54279      .   S
    C6     O600      1.23567  1_565   S
    C290   O600      1.23567      .   S
    C6     O601      1.30927      .   S
    C282   O601      1.30927      .   S
    C6     O602      1.21936      .   S
    C256   O602      1.21936      .   S
    C6     O603      1.27026  1_565   S
    C244   O603      1.27026      .   S
    C7     O604      1.23567  1_565   S
    C291   O604      1.23567      .   S
    C7     O605      1.30930      .   S
    C283   O605      1.30930      .   S
    C7     O606      1.21936      .   S
    C257   O606      1.21936      .   S
    C7     O607      1.27040  1_565   S
    C245   O607      1.27040      .   S
    C291   O608      0.63333      .   S
    C209   O608      0.63333      .   S
    C290   O609      0.63333      .   S
    C208   O609      0.63333      .   S
    C282   O610      0.63086      .   S
    C214   O610      0.63086      .   S
    C283   O611      0.63070      .   S
    C215   O611      0.63070      .   S
    C100   O612      0.54500      .   S
    C220   O612      0.54500      .   S
    C101   O613      0.54501      .   S
    C221   O613      0.54501      .   S
    C50    O614      0.55067      .   S
    C156   O614      0.55067      .   S
    C51    O615      0.55067      .   S
    C157   O615      0.55067      .   S
    C55    O616      0.54439      .   S
    C163   O616      0.54439      .   S
    C54    O617      0.54439      .   S
    C162   O617      0.54439      .   S
    C207   O618      0.55234      .   S
    C91    O618      0.55234      .   S
    C207   O619      0.75976      .   S
    C209   O619      0.75976      .   S
    C207   O620      0.55125      .   S
    C89    O620      0.55125      .   S
    C206   O621      0.55227      .   S
    C90    O621      0.55227      .   S
    C206   O622      0.75967      .   S
    C208   O622      0.75967      .   S
    C206   O623      0.55095      .   S
    C88    O623      0.55095      .   S
    C221   O624      0.69852      .   S
    C163   O624      0.69852      .   S
    C221   O625      0.70011      .   S
    C219   O625      0.70011      .   S
    C220   O626      0.69852      .   S
    C162   O626      0.69852      .   S
    C220   O627      0.70011      .   S
    C218   O627      0.70011      .   S
    C48    O628      0.55030      .   S
    C156   O628      0.55030      .   S
    C49    O629      0.55028      .   S
    C157   O629      0.55028      .   S
    C285   O630      0.69280      .   S
    C219   O630      0.69280      .   S
    C284   O631      0.69280      .   S
    C218   O631      0.69280      .   S
    C224   O632      1.39062      .   S
    C0     O632      1.39062      .   S
    C225   O633      1.39099      .   S
    C1     O633      1.39099      .   S
    C226   O634      1.37036      .   S
    C1     O634      1.37036  1_655   S
    C227   O635      1.37034      .   S
    C0     O635      1.37034      .   S
    C242   O636      1.39118      .   S
    C2     O636      1.39118      .   S
    C243   O637      1.39105      .   S
    C3     O637      1.39105      .   S
    C244   O638      1.37020  1_556   S
    C2     O638      1.37020      .   S
    C245   O639      1.37020  1_556   S
    C3     O639      1.37020      .   S
    C260   O640      1.39097      .   S
    C4     O640      1.39097      .   S
    C261   O641      1.39097      .   S
    C5     O641      1.39097      .   S
    C262   O642      1.37028      .   S
    C5     O642      1.37028      .   S
    C263   O643      1.37029      .   S
    C4     O643      1.37029  1_455   S
    C278   O644      1.39107      .   S
    C6     O644      1.39107      .   S
    C279   O645      1.39107      .   S
    C7     O645      1.39107      .   S
    C280   O646      1.37011  1_554   S
    C6     O646      1.37011      .   S
    C281   O647      1.37011  1_554   S
    C7     O647      1.37011      .   S
