# CIF file generated by openbabel 2.4.90, see http://openbabel.sf.net
data_I
_chemical_name_common ''
_cell_length_a 23.722
_cell_length_b 13.826
_cell_length_c 21.392
_cell_angle_alpha 89.955
_cell_angle_beta 89.997
_cell_angle_gamma 90.003
_space_group_name_H-M_alt 'P 1'
_space_group_name_Hall 'P 1'
loop_
    _symmetry_equiv_pos_as_xyz
    x,y,z
loop_
    _atom_site_label
    _atom_site_type_symbol
    _atom_site_fract_x
    _atom_site_fract_y
    _atom_site_fract_z
    _atom_site_occupancy
    Cd0     Cd   0.49994   0.39119   0.93767   1.000
    Cd1     Cd   0.00000   0.60882   0.06227   1.000
    Cd2     Cd   0.49999   0.60878   0.06228   1.000
    Cd3     Cd   0.00016   0.10962   0.43781   1.000
    Cd4     Cd   0.50021   0.10955   0.43780   1.000
    Cd5     Cd   0.99982   0.89034   0.56217   1.000
    Cd6     Cd   0.49975   0.89038   0.56217   1.000
    Cd7     Cd   0.99997   0.39118   0.93769   1.000
    C8      C    0.49997   0.19120   0.32040   1.000
    C9      C    0.99993   0.66009   0.93359   1.000
    C10     C    0.49999   0.66006   0.93359   1.000
    C11     C    0.00000   0.33989   0.06639   1.000
    C12     C    0.50017   0.33991   0.06639   1.000
    C13     C    0.00000   0.19113   0.32041   1.000
    C14     C    0.99997   0.80884   0.67956   1.000
    C15     C    0.50004   0.80875   0.67954   1.000
    C16     C    0.99996   0.15935   0.56711   1.000
    C17     C    0.50002   0.15933   0.56709   1.000
    C18     C    0.99996   0.30886   0.82077   1.000
    C19     C    0.50003   0.30881   0.82076   1.000
    C20     C    0.00000   0.84059   0.43287   1.000
    C21     C    0.49996   0.84059   0.43288   1.000
    C22     C    0.00003   0.69112   0.17919   1.000
    C23     C    0.49996   0.69116   0.17919   1.000
    O24     O    0.99997   0.27892   0.02167   1.000
    O25     O    0.50118   0.27894   0.02168   1.000
    O26     O    0.99997   0.43126   0.05594   1.000
    O27     O    0.49886   0.43124   0.05593   1.000
    O28     O    0.00000   0.09893   0.32789   1.000
    O29     O    0.50127   0.09903   0.32790   1.000
    O30     O    0.99999   0.24993   0.36591   1.000
    O31     O    0.49873   0.24996   0.36593   1.000
    O32     O    0.99998   0.72108   0.97829   1.000
    O33     O    0.50111   0.72104   0.97828   1.000
    O34     O    0.00001   0.56873   0.94400   1.000
    O35     O    0.49889   0.56871   0.94406   1.000
    O36     O    0.99992   0.90104   0.67210   1.000
    O37     O    0.49876   0.90092   0.67209   1.000
    O38     O    0.00001   0.75004   0.63406   1.000
    O39     O    0.50123   0.75000   0.63403   1.000
    O40     O    0.00003   0.22051   0.52239   1.000
    O41     O    0.50111   0.22048   0.52238   1.000
    O42     O    1.00000   0.06803   0.55680   1.000
    O43     O    0.49889   0.06803   0.55677   1.000
    O44     O    0.99994   0.40116   0.82779   1.000
    O45     O    0.49880   0.40109   0.82776   1.000
    O46     O    0.00003   0.25041   0.86652   1.000
    O47     O    0.50123   0.25040   0.86650   1.000
    O48     O    0.99994   0.77944   0.47759   1.000
    O49     O    0.49888   0.77946   0.47759   1.000
    O50     O    0.99997   0.93191   0.44318   1.000
    O51     O    0.50109   0.93189   0.44320   1.000
    O52     O    0.00000   0.59882   0.17213   1.000
    O53     O    0.50126   0.59889   0.17214   1.000
    O54     O    0.99994   0.74960   0.13346   1.000
    O55     O    0.49871   0.74961   0.13346   1.000
loop_
    _geom_bond_atom_site_label_1
    _geom_bond_atom_site_label_2
    _geom_bond_distance
    _geom_bond_site_symmetry_2
    _ccdc_geom_bond_type
    O24    C11       1.27563  1_655   S
    O24    Cd7       2.37323  1_554   S
    O25    C12       1.27559      .   S
    O25    Cd0       2.37380  1_554   S
    O27    Cd2       2.45858      .   S
    O27    C12       1.28270      .   S
    O26    Cd1       2.45878  1_655   S
    O26    C11       1.28268  1_655   S
    Cd1    O54       2.47239  1_455   S
    Cd1    O52       2.35408      .   S
    Cd1    O32       2.37323  1_454   S
    Cd2    O55       2.47295      .   S
    Cd2    O53       2.35418      .   S
    Cd2    O33       2.37368  1_554   S
    O54    C22       1.26868  1_655   S
    O55    C23       1.26868      .   S
    O52    C22       1.28518      .   S
    O53    C23       1.28515      .   S
    C8     O29       1.28473      .   S
    C8     O31       1.26917      .   S
    C13    O28       1.28464      .   S
    C13    O30       1.26874  1_455   S
    O28    Cd3       2.35617      .   S
    O29    Cd4       2.35573      .   S
    O30    Cd3       2.47479  1_655   S
    O31    Cd4       2.47573      .   S
    C20    O50       1.28183  1_455   S
    C20    O48       1.27626  1_455   S
    C21    O51       1.28188      .   S
    C21    O49       1.27618      .   S
    Cd4    O51       2.45903  1_545   S
    Cd4    O41       2.37293      .   S
    Cd3    O50       2.45960  1_445   S
    Cd3    O40       2.37252      .   S
    O48    Cd5       2.37258      .   S
    O49    Cd6       2.37292      .   S
    O41    C17       1.27628      .   S
    O40    C16       1.27634  1_455   S
    O43    Cd6       2.45890  1_545   S
    O43    C17       1.28187      .   S
    O42    Cd5       2.45938  1_545   S
    O42    C16       1.28184      .   S
    Cd5    O38       2.47451  1_655   S
    Cd5    O36       2.35638      .   S
    Cd6    O39       2.47529      .   S
    Cd6    O37       2.35615      .   S
    O39    C15       1.26869      .   S
    O38    C14       1.26865  1_455   S
    O37    C15       1.28460      .   S
    O36    C14       1.28457      .   S
    C19    O45       1.28510      .   S
    C19    O47       1.26846      .   S
    C18    O44       1.28509      .   S
    C18    O46       1.26871  1_655   S
    O45    Cd0       2.35522      .   S
    O44    Cd7       2.35492      .   S
    O47    Cd0       2.47233      .   S
    O46    Cd7       2.47197  1_455   S
    C10    O35       1.28272      .   S
    C10    O33       1.27544      .   S
    C9     O34       1.28252  1_655   S
    C9     O32       1.27542      .   S
    Cd0    O35       2.45844      .   S
    Cd7    O34       2.45861  1_655   S
