# CIF file generated by openbabel 2.4.90, see http://openbabel.sf.net
data_I
_chemical_name_common ''
_cell_length_a 23.722
_cell_length_b 13.826
_cell_length_c 21.392
_cell_angle_alpha 89.955
_cell_angle_beta 89.997
_cell_angle_gamma 90.003
_space_group_name_H-M_alt 'P 1'
_space_group_name_Hall 'P 1'
loop_
    _symmetry_equiv_pos_as_xyz
    x,y,z
loop_
    _atom_site_label
    _atom_site_type_symbol
    _atom_site_fract_x
    _atom_site_fract_y
    _atom_site_fract_z
    _atom_site_occupancy
    C0      C    0.49997   0.19120   0.32040   1.000
    C1      C    0.99993   0.66009   0.93359   1.000
    C2      C    0.49999   0.66006   0.93359   1.000
    C3      C    0.00000   0.33989   0.06639   1.000
    C4      C    0.50017   0.33991   0.06639   1.000
    C5      C    0.00000   0.19113   0.32041   1.000
    C6      C    0.99997   0.80884   0.67956   1.000
    C7      C    0.50004   0.80875   0.67954   1.000
    C8      C    0.99996   0.15935   0.56711   1.000
    C9      C    0.50002   0.15933   0.56709   1.000
    C10     C    0.99996   0.30886   0.82077   1.000
    C11     C    0.50003   0.30881   0.82076   1.000
    C12     C    0.00000   0.84059   0.43287   1.000
    C13     C    0.49996   0.84059   0.43288   1.000
    C14     C    0.00003   0.69112   0.17919   1.000
    C15     C    0.49996   0.69116   0.17919   1.000
