# CIF file generated by openbabel 2.4.90, see http://openbabel.sf.net
data_I
_chemical_name_common ''
_cell_length_a 23.722
_cell_length_b 13.826
_cell_length_c 21.392
_cell_angle_alpha 89.955
_cell_angle_beta 89.997
_cell_angle_gamma 90.003
_space_group_name_H-M_alt 'P 1'
_space_group_name_Hall 'P 1'
loop_
    _symmetry_equiv_pos_as_xyz
    x,y,z
loop_
    _atom_site_label
    _atom_site_type_symbol
    _atom_site_fract_x
    _atom_site_fract_y
    _atom_site_fract_z
    _atom_site_occupancy
    C0      C    0.99997   0.39118   0.93769   1.000
    C1      C    0.49994   0.39119   0.93767   1.000
    C2      C    0.00000   0.60882   0.06227   1.000
    C3      C    0.49999   0.60878   0.06228   1.000
    C4      C    0.00016   0.10962   0.43781   1.000
    C5      C    0.50021   0.10955   0.43780   1.000
    C6      C    0.99982   0.89034   0.56217   1.000
    C7      C    0.49975   0.89038   0.56217   1.000
    C8      C    0.10374   0.53436   0.90030   1.000
    C9      C    0.60375   0.53548   0.90002   1.000
    C10     C    0.20799   0.54056   0.89783   1.000
    C11     C    0.70799   0.54160   0.89743   1.000
    C12     C    0.20792   0.25631   0.98346   1.000
    C13     C    0.70793   0.25709   0.98271   1.000
    C14     C    0.10354   0.26403   0.98285   1.000
    C15     C    0.60355   0.26483   0.98217   1.000
    C16     C    0.10371   0.46958   0.10504   1.000
    C17     C    0.60375   0.46945   0.10535   1.000
    C18     C    0.20797   0.46436   0.10889   1.000
    C19     C    0.70799   0.46416   0.10905   1.000
    C20     C    0.20818   0.73821   0.01010   1.000
    C21     C    0.70817   0.73773   0.00993   1.000
    C22     C    0.10376   0.73163   0.01194   1.000
    C23     C    0.60374   0.73100   0.01160   1.000
    C24     C    0.39653   0.96533   0.40001   1.000
    C25     C    0.89658   0.96628   0.39948   1.000
    C26     C    0.29229   0.95886   0.39753   1.000
    C27     C    0.79231   0.95983   0.39683   1.000
    C28     C    0.29211   0.24312   0.48287   1.000
    C29     C    0.79207   0.24275   0.48401   1.000
    C30     C    0.39643   0.23577   0.48221   1.000
    C31     C    0.89641   0.23543   0.48337   1.000
    C32     C    0.39625   0.03142   0.60318   1.000
    C33     C    0.89626   0.03157   0.60340   1.000
    C34     C    0.29197   0.03728   0.60671   1.000
    C35     C    0.79202   0.03744   0.60701   1.000
    C36     C    0.29156   0.76007   0.51217   1.000
    C37     C    0.79156   0.76044   0.51220   1.000
    C38     C    0.39594   0.76698   0.51326   1.000
    C39     C    0.89592   0.76711   0.51352   1.000
    C40     C    0.39629   0.46421   0.09796   1.000
    C41     C    0.89635   0.46448   0.09861   1.000
    C42     C    0.29199   0.45757   0.10007   1.000
    C43     C    0.79207   0.45780   0.10083   1.000
    C44     C    0.29192   0.74524   0.01939   1.000
    C45     C    0.79189   0.74430   0.01841   1.000
    C46     C    0.39631   0.73766   0.01984   1.000
    C47     C    0.89628   0.73671   0.01870   1.000
    C48     C    0.39631   0.53060   0.89597   1.000
    C49     C    0.89636   0.53204   0.89628   1.000
    C50     C    0.29205   0.53635   0.89257   1.000
    C51     C    0.79213   0.53784   0.89276   1.000
    C52     C    0.29176   0.26019   0.98867   1.000
    C53     C    0.79173   0.26051   0.98740   1.000
    C54     C    0.39615   0.26682   0.98699   1.000
    C55     C    0.89611   0.26720   0.98602   1.000
    C56     C    0.10339   0.03365   0.60054   1.000
    C57     C    0.60343   0.03454   0.60003   1.000
    C58     C    0.20766   0.04008   0.60320   1.000
    C59     C    0.70768   0.04102   0.60253   1.000
    C60     C    0.20790   0.75721   0.51595   1.000
    C61     C    0.70787   0.75685   0.51706   1.000
    C62     C    0.10356   0.76454   0.51659   1.000
    C63     C    0.60354   0.76418   0.51770   1.000
    C64     C    0.10370   0.96840   0.39648   1.000
    C65     C    0.60372   0.96855   0.39678   1.000
    C66     C    0.20795   0.96252   0.39294   1.000
    C67     C    0.70800   0.96270   0.39324   1.000
    C68     C    0.20841   0.23947   0.48780   1.000
    C69     C    0.70841   0.23983   0.48788   1.000
    C70     C    0.10406   0.23281   0.48649   1.000
    C71     C    0.60403   0.23292   0.48678   1.000
    C72     C    0.00019   0.15379   0.10263   1.000
    C73     C    0.50197   0.15385   0.10267   1.000
    C74     C    0.00000   0.08857   0.21252   1.000
    C75     C    0.50189   0.08868   0.21257   1.000
    C76     C    0.99986   0.37796   0.28419   1.000
    C77     C    0.49830   0.37805   0.28410   1.000
    C78     C    0.99983   0.44409   0.17555   1.000
    C79     C    0.49849   0.44413   0.17552   1.000
    C80     C    0.99979   0.84617   0.89734   1.000
    C81     C    0.50000   0.84613   0.89730   1.000
    C82     C    0.99985   0.91138   0.78740   1.000
    C83     C    0.49979   0.91128   0.78740   1.000
    C84     C    0.00000   0.62198   0.71579   1.000
    C85     C    0.50031   0.62185   0.71579   1.000
    C86     C    0.00000   0.55587   0.82443   1.000
    C87     C    0.50007   0.55579   0.82444   1.000
    C88     C    0.99986   0.34545   0.60299   1.000
    C89     C    0.50002   0.34541   0.60299   1.000
    C90     C    0.99990   0.41094   0.71276   1.000
    C91     C    0.49980   0.41088   0.71277   1.000
    C92     C    0.00002   0.12177   0.78503   1.000
    C93     C    0.50027   0.12169   0.78500   1.000
    C94     C    0.00000   0.05533   0.67648   1.000
    C95     C    0.50002   0.05528   0.67646   1.000
    C96     C    0.00013   0.65448   0.39698   1.000
    C97     C    0.50020   0.65450   0.39696   1.000
    C98     C    0.00000   0.58899   0.28721   1.000
    C99     C    0.50043   0.58904   0.28719   1.000
    C100    C    0.99996   0.87817   0.21495   1.000
    C101    C    0.49949   0.87824   0.21496   1.000
    C102    C    0.99996   0.94461   0.32350   1.000
    C103    C    0.49976   0.94464   0.32352   1.000
    C104    C    0.12890   0.47454   0.91835   1.000
    C105    C    0.62890   0.47557   0.91798   1.000
    C106    C    0.18745   0.47689   0.91716   1.000
    C107    C    0.68744   0.47789   0.91671   1.000
    C108    C    0.21864   0.39853   0.94076   1.000
    C109    C    0.71865   0.39945   0.94020   1.000
    C110    C    0.18741   0.32043   0.96469   1.000
    C111    C    0.68742   0.32127   0.96401   1.000
    C112    C    0.12886   0.32350   0.96440   1.000
    C113    C    0.62887   0.32435   0.96384   1.000
    C114    C    0.12891   0.52757   0.08468   1.000
    C115    C    0.62893   0.52733   0.08482   1.000
    C116    C    0.18746   0.52546   0.08629   1.000
    C117    C    0.68748   0.52519   0.08638   1.000
    C118    C    0.21873   0.60118   0.05942   1.000
    C119    C    0.71874   0.60083   0.05900   1.000
    C120    C    0.18758   0.67669   0.03212   1.000
    C121    C    0.68758   0.67623   0.03201   1.000
    C122    C    0.12903   0.67392   0.03261   1.000
    C123    C    0.62904   0.67344   0.03249   1.000
    C124    C    0.37132   0.02510   0.41801   1.000
    C125    C    0.87133   0.02574   0.41782   1.000
    C126    C    0.31277   0.02260   0.41679   1.000
    C127    C    0.81278   0.02326   0.41653   1.000
    C128    C    0.28149   0.10084   0.44036   1.000
    C129    C    0.78149   0.10114   0.44058   1.000
    C130    C    0.31267   0.17906   0.46413   1.000
    C131    C    0.81264   0.17902   0.46484   1.000
    C132    C    0.37121   0.17616   0.46390   1.000
    C133    C    0.87118   0.17613   0.46466   1.000
    C134    C    0.37096   0.97296   0.58350   1.000
    C135    C    0.87099   0.97312   0.58384   1.000
    C136    C    0.31241   0.97527   0.58515   1.000
    C137    C    0.81244   0.97548   0.58539   1.000
    C138    C    0.28107   0.89880   0.55936   1.000
    C139    C    0.78108   0.89907   0.55950   1.000
    C140    C    0.31217   0.82242   0.53310   1.000
    C141    C    0.81218   0.82271   0.53325   1.000
    C142    C    0.37072   0.82521   0.53335   1.000
    C143    C    0.87073   0.82541   0.53358   1.000
    C144    C    0.37107   0.52464   0.08090   1.000
    C145    C    0.87112   0.52464   0.08116   1.000
    C146    C    0.31253   0.52211   0.08196   1.000
    C147    C    0.81258   0.52207   0.08228   1.000
    C148    C    0.28130   0.60126   0.05955   1.000
    C149    C    0.78132   0.60092   0.05947   1.000
    C150    C    0.31249   0.68038   0.03700   1.000
    C151    C    0.81247   0.67970   0.03630   1.000
    C152    C    0.37104   0.67741   0.03722   1.000
    C153    C    0.87103   0.67676   0.03654   1.000
    C154    C    0.37107   0.47229   0.91588   1.000
    C155    C    0.87111   0.47349   0.91588   1.000
    C156    C    0.31252   0.47460   0.91445   1.000
    C157    C    0.81257   0.47581   0.91435   1.000
    C158    C    0.28122   0.39841   0.94073   1.000
    C159    C    0.78124   0.39933   0.94021   1.000
    C160    C    0.31236   0.32226   0.96729   1.000
    C161    C    0.81234   0.32285   0.96641   1.000
    C162    C    0.37091   0.32498   0.96678   1.000
    C163    C    0.87089   0.32557   0.96604   1.000
    C164    C    0.12864   0.97420   0.58218   1.000
    C165    C    0.62865   0.97480   0.58200   1.000
    C166    C    0.18719   0.97666   0.58348   1.000
    C167    C    0.68720   0.97730   0.58323   1.000
    C168    C    0.21848   0.89879   0.55943   1.000
    C169    C    0.71848   0.89908   0.55964   1.000
    C170    C    0.18733   0.82094   0.53513   1.000
    C171    C    0.68731   0.82089   0.53582   1.000
    C172    C    0.12879   0.82383   0.53531   1.000
    C173    C    0.62876   0.82379   0.53604   1.000
    C174    C    0.12897   0.02684   0.41613   1.000
    C175    C    0.62901   0.02699   0.41638   1.000
    C176    C    0.18753   0.02447   0.41459   1.000
    C177    C    0.68756   0.02468   0.41483   1.000
    C178    C    0.21889   0.10087   0.44044   1.000
    C179    C    0.71890   0.10114   0.44063   1.000
    C180    C    0.18779   0.17721   0.46676   1.000
    C181    C    0.68780   0.17749   0.46693   1.000
    C182    C    0.12924   0.17452   0.46640   1.000
    C183    C    0.62925   0.17471   0.46660   1.000
    C184    C    0.00000   0.33989   0.06639   1.000
    C185    C    0.50017   0.33991   0.06639   1.000
    C186    C    0.00000   0.30255   0.13210   1.000
    C187    C    0.50019   0.30259   0.13211   1.000
    C188    C    0.00000   0.20220   0.14280   1.000
    C189    C    0.50119   0.20226   0.14283   1.000
    C190    C    0.00011   0.16613   0.20353   1.000
    C191    C    0.50113   0.16623   0.20356   1.000
    C192    C    0.00000   0.22964   0.25470   1.000
    C193    C    0.50008   0.22973   0.25473   1.000
    C194    C    0.99994   0.32969   0.24395   1.000
    C195    C    0.49910   0.32976   0.24395   1.000
    C196    C    0.99993   0.36622   0.18322   1.000
    C197    C    0.49916   0.36627   0.18321   1.000
    C198    C    0.00000   0.19113   0.32041   1.000
    C199    C    0.49997   0.19120   0.32040   1.000
    C200    C    0.99993   0.66009   0.93359   1.000
    C201    C    0.49999   0.66006   0.93359   1.000
    C202    C    0.99992   0.69741   0.86787   1.000
    C203    C    0.50003   0.69735   0.86780   1.000
    C204    C    0.99986   0.79777   0.85717   1.000
    C205    C    0.50000   0.79770   0.85714   1.000
    C206    C    0.99987   0.83382   0.79644   1.000
    C207    C    0.49994   0.83373   0.79641   1.000
    C208    C    0.99996   0.77031   0.74527   1.000
    C209    C    0.50006   0.77020   0.74524   1.000
    C210    C    0.00003   0.67026   0.75602   1.000
    C211    C    0.50019   0.67016   0.75602   1.000
    C212    C    0.00001   0.63374   0.81676   1.000
    C213    C    0.50008   0.63366   0.81676   1.000
    C214    C    0.99997   0.80884   0.67956   1.000
    C215    C    0.50004   0.80875   0.67954   1.000
    C216    C    0.99996   0.15935   0.56711   1.000
    C217    C    0.50002   0.15933   0.56709   1.000
    C218    C    0.99991   0.19678   0.63277   1.000
    C219    C    0.50002   0.19674   0.63276   1.000
    C220    C    0.99988   0.29716   0.64326   1.000
    C221    C    0.50001   0.29712   0.64326   1.000
    C222    C    0.99990   0.33337   0.70391   1.000
    C223    C    0.49993   0.33331   0.70391   1.000
    C224    C    0.99995   0.26998   0.75520   1.000
    C225    C    0.50004   0.26991   0.75520   1.000
    C226    C    0.99998   0.16991   0.74460   1.000
    C227    C    0.50015   0.16985   0.74460   1.000
    C228    C    0.99995   0.13322   0.68401   1.000
    C229    C    0.50005   0.13317   0.68400   1.000
    C230    C    0.99996   0.30886   0.82077   1.000
    C231    C    0.50003   0.30881   0.82076   1.000
    C232    C    0.00000   0.84059   0.43287   1.000
    C233    C    0.49996   0.84059   0.43288   1.000
    C234    C    0.00006   0.80315   0.36720   1.000
    C235    C    0.49997   0.80318   0.36721   1.000
    C236    C    0.00011   0.70277   0.35671   1.000
    C237    C    0.50011   0.70280   0.35670   1.000
    C238    C    0.00000   0.66657   0.29606   1.000
    C239    C    0.50020   0.66661   0.29605   1.000
    C240    C    0.00006   0.72996   0.24477   1.000
    C241    C    0.49995   0.73001   0.24476   1.000
    C242    C    1.00000   0.83003   0.25530   1.000
    C243    C    0.49972   0.83008   0.25531   1.000
    C244    C    0.00000   0.86671   0.31590   1.000
    C245    C    0.49981   0.86675   0.31598   1.000
    C246    C    0.00003   0.69112   0.17919   1.000
    C247    C    0.49996   0.69116   0.17919   1.000
    C248    C    0.09977   0.39941   0.94180   1.000
    C249    C    0.59977   0.40037   0.94140   1.000
    C250    C    0.09986   0.60039   0.05819   1.000
    C251    C    0.59988   0.59998   0.05817   1.000
    C252    C    0.40039   0.10033   0.44141   1.000
    C253    C    0.90037   0.10064   0.44171   1.000
    C254    C    0.39995   0.89940   0.55794   1.000
    C255    C    0.89998   0.89954   0.55822   1.000
    C256    C    0.40016   0.60071   0.05863   1.000
    C257    C    0.90018   0.60037   0.05836   1.000
    C258    C    0.40010   0.39893   0.94175   1.000
    C259    C    0.90012   0.39984   0.94145   1.000
    C260    C    0.09960   0.89931   0.55828   1.000
    C261    C    0.59958   0.89959   0.55857   1.000
    C262    C    0.09999   0.10040   0.44177   1.000
    C263    C    0.60002   0.10053   0.44200   1.000
    C264    C    0.99997   0.27892   0.02167   1.000
    C265    C    0.50118   0.27894   0.02168   1.000
    C266    C    0.99997   0.43126   0.05594   1.000
    C267    C    0.49886   0.43124   0.05593   1.000
    C268    C    0.00000   0.09893   0.32789   1.000
    C269    C    0.50127   0.09903   0.32790   1.000
    C270    C    0.99999   0.24993   0.36591   1.000
    C271    C    0.49873   0.24996   0.36593   1.000
    C272    C    0.99998   0.72108   0.97829   1.000
    C273    C    0.50111   0.72104   0.97828   1.000
    C274    C    0.00001   0.56873   0.94400   1.000
    C275    C    0.49889   0.56871   0.94406   1.000
    C276    C    0.99992   0.90104   0.67210   1.000
    C277    C    0.49876   0.90092   0.67209   1.000
    C278    C    0.00001   0.75004   0.63406   1.000
    C279    C    0.50123   0.75000   0.63403   1.000
    C280    C    0.00003   0.22051   0.52239   1.000
    C281    C    0.50111   0.22048   0.52238   1.000
    C282    C    1.00000   0.06803   0.55680   1.000
    C283    C    0.49889   0.06803   0.55677   1.000
    C284    C    0.99994   0.40116   0.82779   1.000
    C285    C    0.49880   0.40109   0.82776   1.000
    C286    C    0.00003   0.25041   0.86652   1.000
    C287    C    0.50123   0.25040   0.86650   1.000
    C288    C    0.99994   0.77944   0.47759   1.000
    C289    C    0.49888   0.77946   0.47759   1.000
    C290    C    0.99997   0.93191   0.44318   1.000
    C291    C    0.50109   0.93189   0.44320   1.000
    C292    C    0.00000   0.59882   0.17213   1.000
    C293    C    0.50126   0.59889   0.17214   1.000
    C294    C    0.99994   0.74960   0.13346   1.000
    C295    C    0.49871   0.74961   0.13346   1.000
    O296    O    0.69788   0.70698   0.02097   1.000
    O297    O    0.19788   0.70745   0.02111   1.000
    O298    O    0.61639   0.70222   0.02204   1.000
    O299    O    0.11639   0.70278   0.02227   1.000
    O300    O    0.80218   0.71200   0.02735   1.000
    O301    O    0.88366   0.70673   0.02762   1.000
    O302    O    0.30221   0.71281   0.02819   1.000
    O303    O    0.38368   0.70753   0.02853   1.000
    O304    O    0.99998   0.30940   0.04403   1.000
    O305    O    0.99997   0.33505   0.97968   1.000
    O306    O    0.50068   0.30942   0.04403   1.000
    O307    O    0.50056   0.33506   0.97967   1.000
    O308    O    0.65831   0.67484   0.03225   1.000
    O309    O    0.70316   0.63853   0.04550   1.000
    O310    O    0.15831   0.67530   0.03236   1.000
    O311    O    0.20316   0.63894   0.04577   1.000
    O312    O    0.61446   0.63671   0.04533   1.000
    O313    O    0.11445   0.63715   0.04540   1.000
    O314    O    0.84175   0.67823   0.03642   1.000
    O315    O    0.79690   0.64031   0.04788   1.000
    O316    O    0.88560   0.63856   0.04745   1.000
    O317    O    0.34177   0.67889   0.03711   1.000
    O318    O    0.29690   0.64082   0.04827   1.000
    O319    O    0.38560   0.63906   0.04792   1.000
    O320    O    0.49943   0.52001   0.05910   1.000
    O321    O    0.49951   0.38557   0.06116   1.000
    O322    O    0.99998   0.52004   0.05910   1.000
    O323    O    0.99998   0.38558   0.06116   1.000
    O324    O    0.54993   0.60438   0.06023   1.000
    O325    O    0.61440   0.56366   0.07150   1.000
    O326    O    0.04993   0.60460   0.06023   1.000
    O327    O    0.11439   0.56398   0.07143   1.000
    O328    O    0.95009   0.60460   0.06031   1.000
    O329    O    0.88565   0.56251   0.06976   1.000
    O330    O    0.45008   0.60474   0.06045   1.000
    O331    O    0.38561   0.56268   0.06976   1.000
    O332    O    0.75003   0.60087   0.05923   1.000
    O333    O    0.70311   0.56301   0.07269   1.000
    O334    O    0.25002   0.60122   0.05949   1.000
    O335    O    0.20310   0.56332   0.07285   1.000
    O336    O    0.79695   0.56149   0.07087   1.000
    O337    O    0.29692   0.56168   0.07075   1.000
    O338    O    0.99997   0.67921   0.09786   1.000
    O339    O    0.00000   0.60382   0.11720   1.000
    O340    O    0.99999   0.66495   0.02028   1.000
    O341    O    0.49935   0.67919   0.09787   1.000
    O342    O    0.50063   0.60383   0.11721   1.000
    O343    O    0.50055   0.66491   0.02028   1.000
    O344    O    0.50018   0.32125   0.09925   1.000
    O345    O    0.00000   0.32122   0.09924   1.000
    O346    O    0.34180   0.52337   0.08143   1.000
    O347    O    0.38368   0.49443   0.08943   1.000
    O348    O    0.84185   0.52335   0.08172   1.000
    O349    O    0.88374   0.49456   0.08988   1.000
    O350    O    0.30226   0.48984   0.09101   1.000
    O351    O    0.80232   0.48993   0.09155   1.000
    O352    O    0.15819   0.52651   0.08548   1.000
    O353    O    0.11631   0.49858   0.09486   1.000
    O354    O    0.65821   0.52626   0.08560   1.000
    O355    O    0.61634   0.49839   0.09508   1.000
    O356    O    0.19771   0.49491   0.09759   1.000
    O357    O    0.69774   0.49467   0.09771   1.000
    O358    O    0.00010   0.17800   0.12271   1.000
    O359    O    0.50158   0.17806   0.12275   1.000
    O360    O    0.00000   0.25237   0.13745   1.000
    O361    O    0.99996   0.33439   0.15766   1.000
    O362    O    0.50069   0.25243   0.13747   1.000
    O363    O    0.49967   0.33443   0.15766   1.000
    O364    O    0.99998   0.72036   0.15632   1.000
    O365    O    0.49934   0.72038   0.15632   1.000
    O366    O    0.00005   0.18417   0.17316   1.000
    O367    O    0.50116   0.18424   0.17319   1.000
    O368    O    0.00002   0.64497   0.17566   1.000
    O369    O    0.50061   0.64503   0.17566   1.000
    O370    O    0.49882   0.40520   0.17937   1.000
    O371    O    0.99988   0.40516   0.17938   1.000
    O372    O    0.49996   0.71059   0.21197   1.000
    O373    O    0.00004   0.71054   0.21198   1.000
    O374    O    0.49913   0.34801   0.21358   1.000
    O375    O    0.99993   0.34795   0.21358   1.000
    O376    O    0.00005   0.12735   0.20802   1.000
    O377    O    0.00005   0.19789   0.22911   1.000
    O378    O    0.50151   0.12745   0.20806   1.000
    O379    O    0.50061   0.19798   0.22914   1.000
    O380    O    0.99998   0.85410   0.23513   1.000
    O381    O    0.49960   0.85416   0.23514   1.000
    O382    O    0.49959   0.27975   0.24934   1.000
    O383    O    0.49870   0.35390   0.26403   1.000
    O384    O    0.99997   0.27967   0.24932   1.000
    O385    O    0.99990   0.35382   0.26407   1.000
    O386    O    0.49984   0.78005   0.25004   1.000
    O387    O    0.50008   0.69831   0.27041   1.000
    O388    O    0.00003   0.77999   0.25004   1.000
    O389    O    0.00003   0.69826   0.27041   1.000
    O390    O    0.00000   0.21039   0.28755   1.000
    O391    O    0.50003   0.21047   0.28756   1.000
    O392    O    1.00000   0.84837   0.28560   1.000
    O393    O    0.49976   0.84842   0.28564   1.000
    O394    O    0.50032   0.62783   0.29162   1.000
    O395    O    0.00000   0.62778   0.29163   1.000
    O396    O    0.50015   0.68471   0.32637   1.000
    O397    O    0.00006   0.68467   0.32638   1.000
    O398    O    0.99998   0.90566   0.31970   1.000
    O399    O    0.00003   0.83493   0.34155   1.000
    O400    O    0.49979   0.90570   0.31975   1.000
    O401    O    0.49989   0.83496   0.34159   1.000
    O402    O    0.50062   0.14511   0.32415   1.000
    O403    O    0.49935   0.22058   0.34316   1.000
    O404    O    0.00000   0.14503   0.32415   1.000
    O405    O    1.00000   0.22053   0.34316   1.000
    O406    O    0.00008   0.10427   0.38285   1.000
    O407    O    0.50074   0.10429   0.38285   1.000
    O408    O    0.50004   0.75299   0.36195   1.000
    O409    O    0.50015   0.67865   0.37683   1.000
    O410    O    0.00008   0.75296   0.36195   1.000
    O411    O    0.00012   0.67863   0.37685   1.000
    O412    O    0.00008   0.17978   0.40186   1.000
    O413    O    0.49947   0.17976   0.40186   1.000
    O414    O    0.00003   0.82187   0.40003   1.000
    O415    O    0.49997   0.82188   0.40004   1.000
    O416    O    0.19774   0.99350   0.40376   1.000
    O417    O    0.69778   0.99369   0.40403   1.000
    O418    O    0.11634   0.99762   0.40631   1.000
    O419    O    0.61636   0.99777   0.40658   1.000
    O420    O    0.80255   0.99155   0.40668   1.000
    O421    O    0.30253   0.99073   0.40716   1.000
    O422    O    0.88396   0.99601   0.40865   1.000
    O423    O    0.38393   0.99521   0.40901   1.000
    O424    O    0.15825   0.02565   0.41536   1.000
    O425    O    0.20321   0.06267   0.42752   1.000
    O426    O    0.65828   0.02583   0.41560   1.000
    O427    O    0.70323   0.06291   0.42773   1.000
    O428    O    0.11448   0.06362   0.42895   1.000
    O429    O    0.61452   0.06376   0.42919   1.000
    O430    O    0.84206   0.02450   0.41718   1.000
    O431    O    0.79713   0.06220   0.42855   1.000
    O432    O    0.34205   0.02385   0.41740   1.000
    O433    O    0.29713   0.06172   0.42857   1.000
    O434    O    0.88585   0.06319   0.42976   1.000
    O435    O    0.38586   0.06271   0.42971   1.000
    O436    O    0.99999   0.88625   0.43802   1.000
    O437    O    0.99997   0.81002   0.45523   1.000
    O438    O    0.50053   0.88624   0.43804   1.000
    O439    O    0.49942   0.81002   0.45523   1.000
    O440    O    0.45030   0.10494   0.43960   1.000
    O441    O    0.55012   0.10504   0.43990   1.000
    O442    O    0.50065   0.02072   0.44050   1.000
    O443    O    0.50066   0.16501   0.48009   1.000
    O444    O    0.95026   0.10513   0.43976   1.000
    O445    O    0.05007   0.10501   0.43979   1.000
    O446    O    0.00007   0.02076   0.44050   1.000
    O447    O    0.00009   0.16507   0.48010   1.000
    O448    O    0.25019   0.10086   0.44040   1.000
    O449    O    0.29708   0.13995   0.45224   1.000
    O450    O    0.20334   0.13904   0.45360   1.000
    O451    O    0.75019   0.10114   0.44060   1.000
    O452    O    0.79706   0.14008   0.45271   1.000
    O453    O    0.70335   0.13931   0.45378   1.000
    O454    O    0.38580   0.13824   0.45265   1.000
    O455    O    0.88578   0.13838   0.45318   1.000
    O456    O    0.11462   0.13746   0.45409   1.000
    O457    O    0.61464   0.13762   0.45430   1.000
    O458    O    0.34194   0.17761   0.46401   1.000
    O459    O    0.38382   0.20596   0.47305   1.000
    O460    O    0.30239   0.21109   0.47350   1.000
    O461    O    0.84191   0.17758   0.46475   1.000
    O462    O    0.88380   0.20578   0.47401   1.000
    O463    O    0.80235   0.21089   0.47442   1.000
    O464    O    0.15852   0.17586   0.46658   1.000
    O465    O    0.11665   0.20366   0.47644   1.000
    O466    O    0.65852   0.17610   0.46676   1.000
    O467    O    0.61664   0.20381   0.47669   1.000
    O468    O    0.19810   0.20834   0.47728   1.000
    O469    O    0.69810   0.20866   0.47740   1.000
    O470    O    0.99988   0.83489   0.51988   1.000
    O471    O    0.49932   0.83492   0.51988   1.000
    O472    O    0.30187   0.79124   0.52263   1.000
    O473    O    0.80187   0.79157   0.52272   1.000
    O474    O    0.38333   0.79609   0.52330   1.000
    O475    O    0.88332   0.79626   0.52355   1.000
    O476    O    0.19762   0.78907   0.52554   1.000
    O477    O    0.11617   0.79418   0.52595   1.000
    O478    O    0.69759   0.78887   0.52644   1.000
    O479    O    0.61615   0.79399   0.52687   1.000
    O480    O    0.50056   0.18990   0.54473   1.000
    O481    O    1.00000   0.18993   0.54475   1.000
    O482    O    0.34145   0.82382   0.53322   1.000
    O483    O    0.29662   0.86061   0.54623   1.000
    O484    O    0.84145   0.82406   0.53341   1.000
    O485    O    0.79663   0.86089   0.54637   1.000
    O486    O    0.38533   0.86230   0.54564   1.000
    O487    O    0.88536   0.86247   0.54590   1.000
    O488    O    0.15806   0.82238   0.53522   1.000
    O489    O    0.20291   0.85986   0.54728   1.000
    O490    O    0.11419   0.86157   0.54679   1.000
    O491    O    0.65803   0.82234   0.53593   1.000
    O492    O    0.70290   0.85998   0.54773   1.000
    O493    O    0.61417   0.86169   0.54730   1.000
    O494    O    0.49932   0.97921   0.55947   1.000
    O495    O    0.49945   0.11368   0.56193   1.000
    O496    O    0.99991   0.97919   0.55948   1.000
    O497    O    0.99998   0.11369   0.56195   1.000
    O498    O    0.44985   0.89489   0.56005   1.000
    O499    O    0.38546   0.93618   0.57072   1.000
    O500    O    0.94990   0.89494   0.56019   1.000
    O501    O    0.88549   0.93633   0.57103   1.000
    O502    O    0.04971   0.89482   0.56022   1.000
    O503    O    0.11412   0.93675   0.57023   1.000
    O504    O    0.54967   0.89499   0.56037   1.000
    O505    O    0.61411   0.93719   0.57028   1.000
    O506    O    0.24978   0.89880   0.55939   1.000
    O507    O    0.29674   0.93704   0.57225   1.000
    O508    O    0.20284   0.93773   0.57145   1.000
    O509    O    0.74978   0.89907   0.55957   1.000
    O510    O    0.79676   0.93727   0.57244   1.000
    O511    O    0.70284   0.93819   0.57144   1.000
    O512    O    0.99991   0.82019   0.59811   1.000
    O513    O    0.99987   0.89569   0.61713   1.000
    O514    O    0.50049   0.82019   0.59810   1.000
    O515    O    0.49926   0.89565   0.61713   1.000
    O516    O    0.50002   0.17804   0.59992   1.000
    O517    O    0.99994   0.17807   0.59994   1.000
    O518    O    0.65792   0.97605   0.58261   1.000
    O519    O    0.61604   0.00467   0.59101   1.000
    O520    O    0.15791   0.97543   0.58283   1.000
    O521    O    0.11601   0.00392   0.59136   1.000
    O522    O    0.69744   0.00916   0.59288   1.000
    O523    O    0.19742   0.00837   0.59334   1.000
    O524    O    0.34169   0.97412   0.58432   1.000
    O525    O    0.38360   0.00219   0.59334   1.000
    O526    O    0.84172   0.97430   0.58461   1.000
    O527    O    0.88363   0.00234   0.59362   1.000
    O528    O    0.30219   0.00628   0.59593   1.000
    O529    O    0.80223   0.00646   0.59620   1.000
    O530    O    0.99987   0.32131   0.62313   1.000
    O531    O    0.50002   0.32126   0.62313   1.000
    O532    O    0.50002   0.24693   0.63801   1.000
    O533    O    0.50004   0.16495   0.65838   1.000
    O534    O    0.99990   0.24697   0.63801   1.000
    O535    O    0.99993   0.16500   0.65839   1.000
    O536    O    0.50064   0.77937   0.65678   1.000
    O537    O    0.99999   0.77944   0.65681   1.000
    O538    O    0.49997   0.31521   0.67358   1.000
    O539    O    0.99989   0.31526   0.67358   1.000
    O540    O    0.49940   0.85483   0.67581   1.000
    O541    O    0.99994   0.85494   0.67583   1.000
    O542    O    0.50004   0.09422   0.68023   1.000
    O543    O    0.99998   0.09428   0.68024   1.000
    O544    O    0.50005   0.78947   0.71239   1.000
    O545    O    0.99996   0.78957   0.71241   1.000
    O546    O    0.50010   0.15151   0.71430   1.000
    O547    O    0.99997   0.15157   0.71430   1.000
    O548    O    0.99990   0.37216   0.70833   1.000
    O549    O    0.99992   0.30168   0.72955   1.000
    O550    O    0.49987   0.37209   0.70834   1.000
    O551    O    0.49999   0.30161   0.72955   1.000
    O552    O    0.00001   0.64612   0.73590   1.000
    O553    O    0.50025   0.64601   0.73590   1.000
    O554    O    0.50009   0.21988   0.74990   1.000
    O555    O    0.50021   0.14577   0.76480   1.000
    O556    O    0.99996   0.21995   0.74990   1.000
    O557    O    0.00000   0.14584   0.76481   1.000
    O558    O    0.50012   0.72018   0.75063   1.000
    O559    O    0.50000   0.80196   0.77082   1.000
    O560    O    0.99999   0.72028   0.75064   1.000
    O561    O    0.99992   0.80206   0.77086   1.000
    O562    O    0.99995   0.28942   0.78799   1.000
    O563    O    0.50004   0.28936   0.78798   1.000
    O564    O    0.50013   0.65191   0.78639   1.000
    O565    O    0.00002   0.65200   0.78639   1.000
    O566    O    0.49987   0.87251   0.79190   1.000
    O567    O    0.99986   0.87260   0.79192   1.000
    O568    O    0.49997   0.81572   0.82677   1.000
    O569    O    0.99987   0.81579   0.82680   1.000
    O570    O    0.50007   0.59473   0.82060   1.000
    O571    O    0.50005   0.66551   0.84228   1.000
    O572    O    0.00001   0.59480   0.82059   1.000
    O573    O    0.99997   0.66558   0.84231   1.000
    O574    O    0.49941   0.35495   0.82426   1.000
    O575    O    0.50063   0.27961   0.84363   1.000
    O576    O    0.99995   0.35501   0.82428   1.000
    O577    O    1.00000   0.27963   0.84364   1.000
    O578    O    0.49937   0.39614   0.88271   1.000
    O579    O    0.99996   0.39617   0.88274   1.000
    O580    O    0.50001   0.74753   0.86247   1.000
    O581    O    0.50000   0.82192   0.87722   1.000
    O582    O    0.99989   0.74759   0.86252   1.000
    O583    O    0.99983   0.82197   0.87725   1.000
    O584    O    0.50058   0.32080   0.90208   1.000
    O585    O    0.00000   0.32079   0.90210   1.000
    O586    O    0.50001   0.67870   0.90069   1.000
    O587    O    0.99992   0.67875   0.90073   1.000
    O588    O    0.30229   0.50547   0.90351   1.000
    O589    O    0.80235   0.50682   0.90355   1.000
    O590    O    0.38369   0.50144   0.90592   1.000
    O591    O    0.88374   0.50276   0.90608   1.000
    O592    O    0.69772   0.50974   0.90707   1.000
    O593    O    0.19772   0.50873   0.90749   1.000
    O594    O    0.61633   0.50552   0.90900   1.000
    O595    O    0.11632   0.50445   0.90933   1.000
    O596    O    0.84184   0.47465   0.91511   1.000
    O597    O    0.79690   0.43757   0.92728   1.000
    O598    O    0.34179   0.47345   0.91517   1.000
    O599    O    0.29687   0.43651   0.92759   1.000
    O600    O    0.38558   0.43561   0.92882   1.000
    O601    O    0.88562   0.43667   0.92866   1.000
    O602    O    0.65817   0.47673   0.91734   1.000
    O603    O    0.70305   0.43867   0.92845   1.000
    O604    O    0.15817   0.47572   0.91775   1.000
    O605    O    0.20304   0.43771   0.92896   1.000
    O606    O    0.61434   0.43797   0.92969   1.000
    O607    O    0.11434   0.43698   0.93007   1.000
    O608    O    0.49944   0.61438   0.93883   1.000
    O609    O    0.50055   0.69055   0.95593   1.000
    O610    O    0.99997   0.61441   0.93880   1.000
    O611    O    0.99995   0.69059   0.95594   1.000
    O612    O    0.54986   0.39578   0.93953   1.000
    O613    O    0.45002   0.39506   0.93971   1.000
    O614    O    0.49942   0.47995   0.94086   1.000
    O615    O    0.95004   0.39551   0.93957   1.000
    O616    O    0.04987   0.39530   0.93974   1.000
    O617    O    0.99999   0.47995   0.94084   1.000
    O618    O    0.74994   0.39939   0.94020   1.000
    O619    O    0.70303   0.36036   0.95210   1.000
    O620    O    0.79679   0.36109   0.95331   1.000
    O621    O    0.24993   0.39847   0.94074   1.000
    O622    O    0.29679   0.36034   0.95401   1.000
    O623    O    0.20303   0.35948   0.95272   1.000
    O624    O    0.61432   0.36236   0.95262   1.000
    O625    O    0.88550   0.36271   0.95374   1.000
    O626    O    0.38550   0.36195   0.95426   1.000
    O627    O    0.11432   0.36146   0.95310   1.000
    O628    O    0.65814   0.32281   0.96392   1.000
    O629    O    0.61621   0.29459   0.97300   1.000
    O630    O    0.69767   0.28918   0.97336   1.000
    O631    O    0.15813   0.32197   0.96454   1.000
    O632    O    0.11620   0.29376   0.97362   1.000
    O633    O    0.19766   0.28837   0.97407   1.000
    O634    O    0.84162   0.32421   0.96622   1.000
    O635    O    0.88350   0.29639   0.97603   1.000
    O636    O    0.80203   0.29168   0.97691   1.000
    O637    O    0.34164   0.32362   0.96703   1.000
    O638    O    0.38353   0.29590   0.97688   1.000
    O639    O    0.30206   0.29123   0.97798   1.000
loop_
    _geom_bond_atom_site_label_1
    _geom_bond_atom_site_label_2
    _geom_bond_distance
    _geom_bond_site_symmetry_2
    _ccdc_geom_bond_type
    C21    O296      0.54400      .   S
    C121   O296      0.54400      .   S
    C20    O297      0.54398      .   S
    C120   O297      0.54398      .   S
    C23    O298      0.54602      .   S
    C123   O298      0.54602      .   S
    C22    O299      0.54572      .   S
    C122   O299      0.54572      .   S
    C45    O300      0.54364      .   S
    C151   O300      0.54364      .   S
    C47    O301      0.54566      .   S
    C153   O301      0.54566      .   S
    C44    O302      0.54397      .   S
    C150   O302      0.54397      .   S
    C46    O303      0.54564      .   S
    C152   O303      0.54564      .   S
    C264   O304      0.63782      .   S
    C184   O304      0.63782  1_455   S
    C264   O305      1.18662  1_554   S
    C0     O305      1.18662      .   S
    C265   O306      0.63780      .   S
    C185   O306      0.63780      .   S
    C265   O307      1.18690  1_554   S
    C1     O307      1.18690      .   S
    C121   O308      0.69470      .   S
    C123   O308      0.69470      .   S
    C121   O309      0.70105      .   S
    C119   O309      0.70105      .   S
    C120   O310      0.69474      .   S
    C122   O310      0.69474      .   S
    C120   O311      0.70283      .   S
    C118   O311      0.70283      .   S
    C123   O312      0.67284      .   S
    C251   O312      0.67284      .   S
    C122   O313      0.67282      .   S
    C250   O313      0.67282      .   S
    C151   O314      0.69480      .   S
    C153   O314      0.69480      .   S
    C151   O315      0.70313      .   S
    C149   O315      0.70313      .   S
    C153   O316      0.67282      .   S
    C257   O316      0.67282      .   S
    C150   O317      0.69481      .   S
    C152   O317      0.69481      .   S
    C150   O318      0.70281      .   S
    C148   O318      0.70281      .   S
    C152   O319      0.67281      .   S
    C256   O319      0.67281      .   S
    C267   O320      1.22929      .   S
    C3     O320      1.22929      .   S
    C267   O321      0.64135      .   S
    C185   O321      0.64135      .   S
    C266   O322      1.22939      .   S
    C2     O322      1.22939  1_455   S
    C266   O323      0.64134      .   S
    C184   O323      0.64134  1_455   S
    C251   O324      1.18709      .   S
    C3     O324      1.18709      .   S
    C251   O325      0.67241      .   S
    C115   O325      0.67241      .   S
    C250   O326      1.18674      .   S
    C2     O326      1.18674      .   S
    C250   O327      0.67244      .   S
    C114   O327      0.67244      .   S
    C257   O328      1.18614      .   S
    C2     O328      1.18614  1_455   S
    C257   O329      0.67240      .   S
    C145   O329      0.67240      .   S
    C256   O330      1.18607      .   S
    C3     O330      1.18607      .   S
    C256   O331      0.67239      .   S
    C144   O331      0.67239      .   S
    C119   O332      0.74222      .   S
    C149   O332      0.74222      .   S
    C119   O333      0.70455      .   S
    C117   O333      0.70455      .   S
    C118   O334      0.74218      .   S
    C148   O334      0.74218      .   S
    C118   O335      0.70281      .   S
    C116   O335      0.70281      .   S
    C149   O336      0.70279      .   S
    C147   O336      0.70279      .   S
    C148   O337      0.70276      .   S
    C146   O337      0.70276      .   S
    C2     O338      1.23619  1_455   S
    C294   O338      1.23619      .   S
    C2     O339      1.17704      .   S
    C292   O339      1.17704      .   S
    C2     O340      1.18662  1_455   S
    C272   O340      1.18662  1_556   S
    C3     O341      1.23647      .   S
    C295   O341      1.23647      .   S
    C3     O342      1.17709      .   S
    C293   O342      1.17709      .   S
    C3     O343      1.18684      .   S
    C273   O343      1.18684  1_556   S
    C185   O344      0.74858      .   S
    C187   O344      0.74858      .   S
    C184   O345      0.74855      .   S
    C186   O345      0.74855      .   S
    C144   O346      0.69467      .   S
    C146   O346      0.69467      .   S
    C144   O347      0.54521      .   S
    C40    O347      0.54521      .   S
    C145   O348      0.69470      .   S
    C147   O348      0.69470      .   S
    C145   O349      0.54521      .   S
    C41    O349      0.54521      .   S
    C146   O350      0.54386      .   S
    C42    O350      0.54386      .   S
    C147   O351      0.54384      .   S
    C43    O351      0.54384      .   S
    C114   O352      0.69479      .   S
    C116   O352      0.69479      .   S
    C114   O353      0.54529      .   S
    C16    O353      0.54529      .   S
    C115   O354      0.69481      .   S
    C117   O354      0.69481      .   S
    C115   O355      0.54529      .   S
    C17    O355      0.54529      .   S
    C116   O356      0.54388      .   S
    C18    O356      0.54388      .   S
    C117   O357      0.54389      .   S
    C19    O357      0.54389      .   S
    C72    O358      0.54479      .   S
    C188   O358      0.54479      .   S
    C73    O359      0.54481      .   S
    C189   O359      0.54481      .   S
    C186   O360      0.70304      .   S
    C188   O360      0.70304      .   S
    C186   O361      0.70219  1_455   S
    C196   O361      0.70219      .   S
    C187   O362      0.70303      .   S
    C189   O362      0.70303      .   S
    C187   O363      0.70215      .   S
    C197   O363      0.70215      .   S
    C294   O364      0.63434      .   S
    C246   O364      0.63434  1_455   S
    C295   O365      0.63434      .   S
    C247   O365      0.63434      .   S
    C188   O366      0.69558      .   S
    C190   O366      0.69558      .   S
    C189   O367      0.69551      .   S
    C191   O367      0.69551      .   S
    C292   O368      0.64259      .   S
    C246   O368      0.64259      .   S
    C293   O369      0.64258      .   S
    C247   O369      0.64258      .   S
    C79    O370      0.54449      .   S
    C197   O370      0.54449      .   S
    C78    O371      0.54448      .   S
    C196   O371      0.54448      .   S
    C247   O372      0.75120      .   S
    C241   O372      0.75120      .   S
    C246   O373      0.75127      .   S
    C240   O373      0.75127      .   S
    C197   O374      0.69679      .   S
    C195   O374      0.69679      .   S
    C196   O375      0.69675      .   S
    C194   O375      0.69675      .   S
    C190   O376      0.54467      .   S
    C74    O376      0.54467      .   S
    C190   O377      0.70192      .   S
    C192   O377      0.70192      .   S
    C191   O378      0.54466      .   S
    C75    O378      0.54466      .   S
    C191   O379      0.70203      .   S
    C193   O379      0.70203      .   S
    C100   O380      0.54480      .   S
    C242   O380      0.54480      .   S
    C101   O381      0.54487      .   S
    C243   O381      0.54487      .   S
    C195   O382      0.70103      .   S
    C193   O382      0.70103      .   S
    C195   O383      0.54421      .   S
    C77    O383      0.54421      .   S
    C194   O384      0.70101      .   S
    C192   O384      0.70101  1_455   S
    C194   O385      0.54483      .   S
    C76    O385      0.54483      .   S
    C241   O386      0.70099      .   S
    C243   O386      0.70099      .   S
    C241   O387      0.70191      .   S
    C239   O387      0.70191      .   S
    C240   O388      0.70097      .   S
    C242   O388      0.70097  1_655   S
    C240   O389      0.70186      .   S
    C238   O389      0.70186      .   S
    C192   O390      0.75139      .   S
    C198   O390      0.75139      .   S
    C193   O391      0.75103      .   S
    C199   O391      0.75103      .   S
    C242   O392      0.69621      .   S
    C244   O392      0.69621  1_455   S
    C243   O393      0.69687      .   S
    C245   O393      0.69687      .   S
    C99    O394      0.54465      .   S
    C239   O394      0.54465      .   S
    C98    O395      0.54465      .   S
    C238   O395      0.54465      .   S
    C239   O396      0.69546      .   S
    C237   O396      0.69546      .   S
    C238   O397      0.69550      .   S
    C236   O397      0.69550      .   S
    C244   O398      0.54463  1_455   S
    C102   O398      0.54463      .   S
    C244   O399      0.70269      .   S
    C234   O399      0.70269      .   S
    C245   O400      0.54453      .   S
    C103   O400      0.54453      .   S
    C245   O401      0.70217      .   S
    C235   O401      0.70217      .   S
    C199   O402      0.64237      .   S
    C269   O402      0.64237      .   S
    C199   O403      0.63458      .   S
    C271   O403      0.63458      .   S
    C198   O404      0.64232      .   S
    C268   O404      0.64232      .   S
    C198   O405      0.63437  1_455   S
    C270   O405      0.63437      .   S
    C268   O406      1.17809      .   S
    C4     O406      1.17809      .   S
    C269   O407      1.17786      .   S
    C5     O407      1.17786      .   S
    C237   O408      0.70303      .   S
    C235   O408      0.70303      .   S
    C237   O409      0.54472      .   S
    C97    O409      0.54472      .   S
    C236   O410      0.70302      .   S
    C234   O410      0.70302      .   S
    C236   O411      0.54476      .   S
    C96    O411      0.54476      .   S
    C270   O412      1.23739  1_655   S
    C4     O412      1.23739      .   S
    C271   O413      1.23786      .   S
    C5     O413      1.23786      .   S
    C234   O414      0.74877      .   S
    C232   O414      0.74877      .   S
    C235   O415      0.74871      .   S
    C233   O415      0.74871      .   S
    C66    O416      0.54392      .   S
    C176   O416      0.54392  1_545   S
    C67    O417      0.54390      .   S
    C177   O417      0.54390  1_545   S
    C64    O418      0.54530      .   S
    C174   O418      0.54530  1_545   S
    C65    O419      0.54524      .   S
    C175   O419      0.54524  1_545   S
    C27    O420      0.54385      .   S
    C127   O420      0.54385  1_545   S
    C26    O421      0.54386      .   S
    C126   O421      0.54386  1_545   S
    C25    O422      0.54524      .   S
    C125   O422      0.54524  1_545   S
    C24    O423      0.54524      .   S
    C124   O423      0.54524  1_545   S
    C176   O424      0.69490      .   S
    C174   O424      0.69490      .   S
    C176   O425      0.70285      .   S
    C178   O425      0.70285      .   S
    C177   O426      0.69483      .   S
    C175   O426      0.69483      .   S
    C177   O427      0.70282      .   S
    C179   O427      0.70282      .   S
    C174   O428      0.67251      .   S
    C262   O428      0.67251      .   S
    C175   O429      0.67230      .   S
    C263   O429      0.67230      .   S
    C127   O430      0.69480      .   S
    C125   O430      0.69480      .   S
    C127   O431      0.70284      .   S
    C129   O431      0.70284      .   S
    C126   O432      0.69482      .   S
    C124   O432      0.69482      .   S
    C126   O433      0.70285      .   S
    C128   O433      0.70285      .   S
    C125   O434      0.67247      .   S
    C253   O434      0.67247      .   S
    C124   O435      0.67245      .   S
    C252   O435      0.67245      .   S
    C232   O436      0.64091  1_455   S
    C290   O436      0.64091      .   S
    C232   O437      0.63813  1_455   S
    C288   O437      0.63813      .   S
    C233   O438      0.64094      .   S
    C291   O438      0.64094      .   S
    C233   O439      0.63809      .   S
    C289   O439      0.63809      .   S
    C5     O440      1.18633      .   S
    C252   O440      1.18633      .   S
    C5     O441      1.18634      .   S
    C263   O441      1.18634      .   S
    C5     O442      1.22951      .   S
    C291   O442      1.22951  1_565   S
    C5     O443      1.18647      .   S
    C281   O443      1.18647      .   S
    C4     O444      1.18598  1_455   S
    C253   O444      1.18598      .   S
    C4     O445      1.18656      .   S
    C262   O445      1.18656      .   S
    C4     O446      1.22980      .   S
    C290   O446      1.22980  1_665   S
    C4     O447      1.18626      .   S
    C280   O447      1.18626      .   S
    C128   O448      0.74243      .   S
    C178   O448      0.74243      .   S
    C128   O449      0.70285      .   S
    C130   O449      0.70285      .   S
    C178   O450      0.70288      .   S
    C180   O450      0.70288      .   S
    C129   O451      0.74233      .   S
    C179   O451      0.74233      .   S
    C129   O452      0.70283      .   S
    C131   O452      0.70283      .   S
    C179   O453      0.70289      .   S
    C181   O453      0.70289      .   S
    C252   O454      0.67277      .   S
    C132   O454      0.67277      .   S
    C253   O455      0.67279      .   S
    C133   O455      0.67279      .   S
    C262   O456      0.67270      .   S
    C182   O456      0.67270      .   S
    C263   O457      0.67277      .   S
    C183   O457      0.67277      .   S
    C132   O458      0.69471      .   S
    C130   O458      0.69471      .   S
    C132   O459      0.54572      .   S
    C30    O459      0.54572      .   S
    C130   O460      0.54393      .   S
    C28    O460      0.54393      .   S
    C133   O461      0.69469      .   S
    C131   O461      0.69469      .   S
    C133   O462      0.54568      .   S
    C31    O462      0.54568      .   S
    C131   O463      0.54391      .   S
    C29    O463      0.54391      .   S
    C182   O464      0.69471      .   S
    C180   O464      0.69471      .   S
    C182   O465      0.54582      .   S
    C70    O465      0.54582      .   S
    C183   O466      0.69466      .   S
    C181   O466      0.69466      .   S
    C183   O467      0.54603      .   S
    C71    O467      0.54603      .   S
    C180   O468      0.54394      .   S
    C68    O468      0.54394      .   S
    C181   O469      0.54391      .   S
    C69    O469      0.54391      .   S
    C288   O470      1.18629      .   S
    C6     O470      1.18629      .   S
    C289   O471      1.18646      .   S
    C7     O471      1.18646      .   S
    C36    O472      0.54391      .   S
    C140   O472      0.54391      .   S
    C37    O473      0.54403      .   S
    C141   O473      0.54403      .   S
    C38    O474      0.54574      .   S
    C142   O474      0.54574      .   S
    C39    O475      0.54575      .   S
    C143   O475      0.54575      .   S
    C60    O476      0.54392      .   S
    C170   O476      0.54392      .   S
    C62    O477      0.54567      .   S
    C172   O477      0.54567      .   S
    C61    O478      0.54390      .   S
    C171   O478      0.54390      .   S
    C63    O479      0.54574      .   S
    C173   O479      0.54574      .   S
    C281   O480      0.63814      .   S
    C217   O480      0.63814      .   S
    C280   O481      0.63817  1_455   S
    C216   O481      0.63817      .   S
    C140   O482      0.69466      .   S
    C142   O482      0.69466      .   S
    C140   O483      0.70289      .   S
    C138   O483      0.70289      .   S
    C141   O484      0.69472      .   S
    C143   O484      0.69472      .   S
    C141   O485      0.70273      .   S
    C139   O485      0.70273      .   S
    C142   O486      0.67280      .   S
    C254   O486      0.67280      .   S
    C143   O487      0.67281      .   S
    C255   O487      0.67281      .   S
    C170   O488      0.69469      .   S
    C172   O488      0.69469      .   S
    C170   O489      0.70284      .   S
    C168   O489      0.70284      .   S
    C172   O490      0.67279      .   S
    C260   O490      0.67279      .   S
    C171   O491      0.69471      .   S
    C173   O491      0.69471      .   S
    C171   O492      0.70288      .   S
    C169   O492      0.70288      .   S
    C173   O493      0.67281      .   S
    C261   O493      0.67281      .   S
    C283   O494      1.22945  1_545   S
    C7     O494      1.22945      .   S
    C283   O495      0.64093      .   S
    C217   O495      0.64093      .   S
    C282   O496      1.22969  1_545   S
    C6     O496      1.22969      .   S
    C282   O497      0.64092      .   S
    C216   O497      0.64092      .   S
    C254   O498      1.18628      .   S
    C7     O498      1.18628      .   S
    C254   O499      0.67217      .   S
    C134   O499      0.67217      .   S
    C255   O500      1.18662      .   S
    C6     O500      1.18662      .   S
    C255   O501      0.67251      .   S
    C135   O501      0.67251      .   S
    C260   O502      1.18591      .   S
    C6     O502      1.18591  1_655   S
    C260   O503      0.67244      .   S
    C164   O503      0.67244      .   S
    C261   O504      1.18637      .   S
    C7     O504      1.18637      .   S
    C261   O505      0.67243      .   S
    C165   O505      0.67243      .   S
    C138   O506      0.74233      .   S
    C168   O506      0.74233      .   S
    C138   O507      0.70285      .   S
    C136   O507      0.70285      .   S
    C168   O508      0.70283      .   S
    C166   O508      0.70283      .   S
    C139   O509      0.74242      .   S
    C169   O509      0.74242      .   S
    C139   O510      0.70305      .   S
    C137   O510      0.70305      .   S
    C169   O511      0.70284      .   S
    C167   O511      0.70284      .   S
    C6     O512      1.23726      .   S
    C278   O512      1.23726  1_455   S
    C6     O513      1.17819      .   S
    C276   O513      1.17819      .   S
    C7     O514      1.23765      .   S
    C279   O514      1.23765      .   S
    C7     O515      1.17807      .   S
    C277   O515      1.17807      .   S
    C217   O516      0.74869      .   S
    C219   O516      0.74869      .   S
    C216   O517      0.74865      .   S
    C218   O517      0.74865      .   S
    C165   O518      0.69482      .   S
    C167   O518      0.69482      .   S
    C165   O519      0.54527  1_565   S
    C57    O519      0.54527      .   S
    C164   O520      0.69480      .   S
    C166   O520      0.69480      .   S
    C164   O521      0.54526  1_565   S
    C56    O521      0.54526      .   S
    C167   O522      0.54387  1_565   S
    C59    O522      0.54387      .   S
    C166   O523      0.54382  1_565   S
    C58    O523      0.54382      .   S
    C134   O524      0.69486      .   S
    C136   O524      0.69486      .   S
    C134   O525      0.54562  1_565   S
    C32    O525      0.54562      .   S
    C135   O526      0.69490      .   S
    C137   O526      0.69490      .   S
    C135   O527      0.54498  1_565   S
    C33    O527      0.54498      .   S
    C136   O528      0.54391  1_565   S
    C34    O528      0.54391      .   S
    C137   O529      0.54391  1_565   S
    C35    O529      0.54391      .   S
    C88    O530      0.54474      .   S
    C220   O530      0.54474      .   S
    C89    O531      0.54477      .   S
    C221   O531      0.54477      .   S
    C219   O532      0.70302      .   S
    C221   O532      0.70302      .   S
    C219   O533      0.70223      .   S
    C229   O533      0.70223      .   S
    C218   O534      0.70302      .   S
    C220   O534      0.70302      .   S
    C218   O535      0.70218      .   S
    C228   O535      0.70218      .   S
    C279   O536      0.63434      .   S
    C215   O536      0.63434      .   S
    C278   O537      0.63433  1_455   S
    C214   O537      0.63433      .   S
    C221   O538      0.69547      .   S
    C223   O538      0.69547      .   S
    C220   O539      0.69551      .   S
    C222   O539      0.69551      .   S
    C277   O540      0.64230      .   S
    C215   O540      0.64230      .   S
    C276   O541      0.64229      .   S
    C214   O541      0.64229      .   S
    C95    O542      0.54453      .   S
    C229   O542      0.54453      .   S
    C94    O543      0.54452  1_455   S
    C228   O543      0.54452      .   S
    C215   O544      0.75135      .   S
    C209   O544      0.75135      .   S
    C214   O545      0.75142      .   S
    C208   O545      0.75142      .   S
    C229   O546      0.69619      .   S
    C227   O546      0.69619      .   S
    C228   O547      0.69612      .   S
    C226   O547      0.69612      .   S
    C222   O548      0.54465      .   S
    C90    O548      0.54465      .   S
    C222   O549      0.70184      .   S
    C224   O549      0.70184      .   S
    C223   O550      0.54465      .   S
    C91    O550      0.54465      .   S
    C223   O551      0.70188      .   S
    C225   O551      0.70188      .   S
    C84    O552      0.54478      .   S
    C210   O552      0.54478      .   S
    C85    O553      0.54490      .   S
    C211   O553      0.54490      .   S
    C227   O554      0.70109      .   S
    C225   O554      0.70109      .   S
    C227   O555      0.54527      .   S
    C93    O555      0.54527      .   S
    C226   O556      0.70110      .   S
    C224   O556      0.70110      .   S
    C226   O557      0.54547  1_655   S
    C92    O557      0.54547      .   S
    C209   O558      0.70103      .   S
    C211   O558      0.70103      .   S
    C209   O559      0.70200      .   S
    C207   O559      0.70200      .   S
    C208   O560      0.70100      .   S
    C210   O560      0.70100  1_455   S
    C208   O561      0.70194      .   S
    C206   O561      0.70194      .   S
    C224   O562      0.75126      .   S
    C230   O562      0.75126      .   S
    C225   O563      0.75121      .   S
    C231   O563      0.75121      .   S
    C211   O564      0.69677      .   S
    C213   O564      0.69677      .   S
    C210   O565      0.69683      .   S
    C212   O565      0.69683      .   S
    C83    O566      0.54466      .   S
    C207   O566      0.54466      .   S
    C82    O567      0.54475      .   S
    C206   O567      0.54475      .   S
    C207   O568      0.69549      .   S
    C205   O568      0.69549      .   S
    C206   O569      0.69556      .   S
    C204   O569      0.69556      .   S
    C213   O570      0.54448      .   S
    C87    O570      0.54448      .   S
    C213   O571      0.70162      .   S
    C203   O571      0.70162      .   S
    C212   O572      0.54447      .   S
    C86    O572      0.54447      .   S
    C212   O573      0.70214  1_455   S
    C202   O573      0.70214      .   S
    C231   O574      0.64255      .   S
    C285   O574      0.64255      .   S
    C231   O575      0.63423      .   S
    C287   O575      0.63423      .   S
    C230   O576      0.64255      .   S
    C284   O576      0.64255      .   S
    C230   O577      0.63436      .   S
    C286   O577      0.63436  1_455   S
    C285   O578      1.17761      .   S
    C1     O578      1.17761      .   S
    C284   O579      1.17746      .   S
    C0     O579      1.17746      .   S
    C205   O580      0.70293      .   S
    C203   O580      0.70293      .   S
    C205   O581      0.54481      .   S
    C81    O581      0.54481      .   S
    C204   O582      0.70304      .   S
    C202   O582      0.70304      .   S
    C204   O583      0.54480      .   S
    C80    O583      0.54480      .   S
    C287   O584      1.23617      .   S
    C1     O584      1.23617      .   S
    C286   O585      1.23599      .   S
    C0     O585      1.23599  1_655   S
    C203   O586      0.74925      .   S
    C201   O586      0.74925      .   S
    C202   O587      0.74860      .   S
    C200   O587      0.74860      .   S
    C50    O588      0.54385      .   S
    C156   O588      0.54385      .   S
    C51    O589      0.54387      .   S
    C157   O589      0.54387      .   S
    C48    O590      0.54527      .   S
    C154   O590      0.54527      .   S
    C49    O591      0.54524      .   S
    C155   O591      0.54524      .   S
    C11    O592      0.54382      .   S
    C107   O592      0.54382      .   S
    C10    O593      0.54380      .   S
    C106   O593      0.54380      .   S
    C9     O594      0.54524      .   S
    C105   O594      0.54524      .   S
    C8     O595      0.54524      .   S
    C104   O595      0.54524      .   S
    C157   O596      0.69479      .   S
    C155   O596      0.69479      .   S
    C157   O597      0.70280      .   S
    C159   O597      0.70280      .   S
    C156   O598      0.69476      .   S
    C154   O598      0.69476      .   S
    C156   O599      0.70281      .   S
    C158   O599      0.70281      .   S
    C154   O600      0.67241      .   S
    C258   O600      0.67241      .   S
    C155   O601      0.67244      .   S
    C259   O601      0.67244      .   S
    C107   O602      0.69471      .   S
    C105   O602      0.69471      .   S
    C107   O603      0.70282      .   S
    C109   O603      0.70282      .   S
    C106   O604      0.69468      .   S
    C104   O604      0.69468      .   S
    C106   O605      0.70279      .   S
    C108   O605      0.70279      .   S
    C105   O606      0.67237      .   S
    C249   O606      0.67237      .   S
    C104   O607      0.67216      .   S
    C248   O607      0.67216      .   S
    C201   O608      0.64136      .   S
    C275   O608      0.64136      .   S
    C201   O609      0.63772      .   S
    C273   O609      0.63772      .   S
    C200   O610      0.64126      .   S
    C274   O610      0.64126  1_455   S
    C200   O611      0.63771      .   S
    C272   O611      0.63771      .   S
    C1     O612      1.18646      .   S
    C249   O612      1.18646      .   S
    C1     O613      1.18631      .   S
    C258   O613      1.18631      .   S
    C1     O614      1.22922      .   S
    C275   O614      1.22922      .   S
    C0     O615      1.18661      .   S
    C259   O615      1.18661      .   S
    C0     O616      1.18591  1_655   S
    C248   O616      1.18591      .   S
    C0     O617      1.22930      .   S
    C274   O617      1.22930  1_455   S
    C109   O618      0.74232      .   S
    C159   O618      0.74232      .   S
    C109   O619      0.70282      .   S
    C111   O619      0.70282      .   S
    C159   O620      0.70286      .   S
    C161   O620      0.70286      .   S
    C158   O621      0.74227      .   S
    C108   O621      0.74227      .   S
    C158   O622      0.70288      .   S
    C160   O622      0.70288      .   S
    C108   O623      0.70282      .   S
    C110   O623      0.70282      .   S
    C249   O624      0.67286      .   S
    C113   O624      0.67286      .   S
    C259   O625      0.67279      .   S
    C163   O625      0.67279      .   S
    C258   O626      0.67276      .   S
    C162   O626      0.67276      .   S
    C248   O627      0.67280      .   S
    C112   O627      0.67280      .   S
    C113   O628      0.69474      .   S
    C111   O628      0.69474      .   S
    C113   O629      0.54567      .   S
    C15    O629      0.54567      .   S
    C111   O630      0.54396      .   S
    C13    O630      0.54396      .   S
    C112   O631      0.69480      .   S
    C110   O631      0.69480      .   S
    C112   O632      0.54589      .   S
    C14    O632      0.54589      .   S
    C110   O633      0.54394      .   S
    C12    O633      0.54394      .   S
    C163   O634      0.69474      .   S
    C161   O634      0.69474      .   S
    C163   O635      0.54577      .   S
    C55    O635      0.54577      .   S
    C161   O636      0.54381      .   S
    C53    O636      0.54381      .   S
    C162   O637      0.69475      .   S
    C160   O637      0.69475      .   S
    C162   O638      0.54574      .   S
    C54    O638      0.54574      .   S
    C160   O639      0.54395      .   S
    C52    O639      0.54395      .   S
