# CIF file generated by openbabel 2.4.90, see http://openbabel.sf.net
data_I
_chemical_name_common ''
_cell_length_a 23.722
_cell_length_b 13.826
_cell_length_c 21.392
_cell_angle_alpha 89.955
_cell_angle_beta 89.997
_cell_angle_gamma 90.003
_space_group_name_H-M_alt 'P 1'
_space_group_name_Hall 'P 1'
loop_
    _symmetry_equiv_pos_as_xyz
    x,y,z
loop_
    _atom_site_label
    _atom_site_type_symbol
    _atom_site_fract_x
    _atom_site_fract_y
    _atom_site_fract_z
    _atom_site_occupancy
    Zr0     Zr   0.99997   0.39118   0.93769   1.000
    Zr1     Zr   0.49994   0.39119   0.93767   1.000
    Zr2     Zr   0.00000   0.60882   0.06227   1.000
    Zr3     Zr   0.49999   0.60878   0.06228   1.000
    Zr4     Zr   0.00016   0.10962   0.43781   1.000
    Zr5     Zr   0.50021   0.10955   0.43780   1.000
    Zr6     Zr   0.99982   0.89034   0.56217   1.000
    Zr7     Zr   0.49975   0.89038   0.56217   1.000
    Zr8     Zr   0.00000   0.33989   0.06639   1.000
    Zr9     Zr   0.50017   0.33991   0.06639   1.000
    Zr10    Zr   0.00000   0.19113   0.32041   1.000
    Zr11    Zr   0.49997   0.19120   0.32040   1.000
    Zr12    Zr   0.99993   0.66009   0.93359   1.000
    Zr13    Zr   0.49999   0.66006   0.93359   1.000
    Zr14    Zr   0.99997   0.80884   0.67956   1.000
    Zr15    Zr   0.50004   0.80875   0.67954   1.000
    Zr16    Zr   0.99996   0.15935   0.56711   1.000
    Zr17    Zr   0.50002   0.15933   0.56709   1.000
    Zr18    Zr   0.99996   0.30886   0.82077   1.000
    Zr19    Zr   0.50003   0.30881   0.82076   1.000
    Zr20    Zr   0.00000   0.84059   0.43287   1.000
    Zr21    Zr   0.49996   0.84059   0.43288   1.000
    Zr22    Zr   0.00003   0.69112   0.17919   1.000
    Zr23    Zr   0.49996   0.69116   0.17919   1.000
    Zr24    Zr   0.99997   0.27892   0.02167   1.000
    Zr25    Zr   0.50118   0.27894   0.02168   1.000
    Zr26    Zr   0.99997   0.43126   0.05594   1.000
    Zr27    Zr   0.49886   0.43124   0.05593   1.000
    Zr28    Zr   0.00000   0.09893   0.32789   1.000
    Zr29    Zr   0.50127   0.09903   0.32790   1.000
    Zr30    Zr   0.99999   0.24993   0.36591   1.000
    Zr31    Zr   0.49873   0.24996   0.36593   1.000
    Zr32    Zr   0.99998   0.72108   0.97829   1.000
    Zr33    Zr   0.50111   0.72104   0.97828   1.000
    Zr34    Zr   0.00001   0.56873   0.94400   1.000
    Zr35    Zr   0.49889   0.56871   0.94406   1.000
    Zr36    Zr   0.99992   0.90104   0.67210   1.000
    Zr37    Zr   0.49876   0.90092   0.67209   1.000
    Zr38    Zr   0.00001   0.75004   0.63406   1.000
    Zr39    Zr   0.50123   0.75000   0.63403   1.000
    Zr40    Zr   0.00003   0.22051   0.52239   1.000
    Zr41    Zr   0.50111   0.22048   0.52238   1.000
    Zr42    Zr   1.00000   0.06803   0.55680   1.000
    Zr43    Zr   0.49889   0.06803   0.55677   1.000
    Zr44    Zr   0.99994   0.40116   0.82779   1.000
    Zr45    Zr   0.49880   0.40109   0.82776   1.000
    Zr46    Zr   0.00003   0.25041   0.86652   1.000
    Zr47    Zr   0.50123   0.25040   0.86650   1.000
    Zr48    Zr   0.99994   0.77944   0.47759   1.000
    Zr49    Zr   0.49888   0.77946   0.47759   1.000
    Zr50    Zr   0.99997   0.93191   0.44318   1.000
    Zr51    Zr   0.50109   0.93189   0.44320   1.000
    Zr52    Zr   0.00000   0.59882   0.17213   1.000
    Zr53    Zr   0.50126   0.59889   0.17214   1.000
    Zr54    Zr   0.99994   0.74960   0.13346   1.000
    Zr55    Zr   0.49871   0.74961   0.13346   1.000
    O56     O    0.99998   0.30940   0.04403   1.000
    O57     O    0.99997   0.33505   0.97968   1.000
    O58     O    0.50068   0.30942   0.04403   1.000
    O59     O    0.50056   0.33506   0.97967   1.000
    O60     O    0.49943   0.52001   0.05910   1.000
    O61     O    0.49951   0.38557   0.06116   1.000
    O62     O    0.99998   0.52004   0.05910   1.000
    O63     O    0.99998   0.38558   0.06116   1.000
    O64     O    0.99997   0.67921   0.09786   1.000
    O65     O    0.00000   0.60382   0.11720   1.000
    O66     O    0.99999   0.66495   0.02028   1.000
    O67     O    0.49935   0.67919   0.09787   1.000
    O68     O    0.50063   0.60383   0.11721   1.000
    O69     O    0.50055   0.66491   0.02028   1.000
    O70     O    0.99998   0.72036   0.15632   1.000
    O71     O    0.49934   0.72038   0.15632   1.000
    O72     O    0.00002   0.64497   0.17566   1.000
    O73     O    0.50061   0.64503   0.17566   1.000
    O74     O    0.50062   0.14511   0.32415   1.000
    O75     O    0.49935   0.22058   0.34316   1.000
    O76     O    0.00000   0.14503   0.32415   1.000
    O77     O    1.00000   0.22053   0.34316   1.000
    O78     O    0.00008   0.10427   0.38285   1.000
    O79     O    0.50074   0.10429   0.38285   1.000
    O80     O    0.00008   0.17978   0.40186   1.000
    O81     O    0.49947   0.17976   0.40186   1.000
    O82     O    0.99999   0.88625   0.43802   1.000
    O83     O    0.99997   0.81002   0.45523   1.000
    O84     O    0.50053   0.88624   0.43804   1.000
    O85     O    0.49942   0.81002   0.45523   1.000
    O86     O    0.50065   0.02072   0.44050   1.000
    O87     O    0.50066   0.16501   0.48009   1.000
    O88     O    0.00007   0.02076   0.44050   1.000
    O89     O    0.00009   0.16507   0.48010   1.000
    O90     O    0.99988   0.83489   0.51988   1.000
    O91     O    0.49932   0.83492   0.51988   1.000
    O92     O    0.50056   0.18990   0.54473   1.000
    O93     O    1.00000   0.18993   0.54475   1.000
    O94     O    0.49932   0.97921   0.55947   1.000
    O95     O    0.49945   0.11368   0.56193   1.000
    O96     O    0.99991   0.97919   0.55948   1.000
    O97     O    0.99998   0.11369   0.56195   1.000
    O98     O    0.99991   0.82019   0.59811   1.000
    O99     O    0.99987   0.89569   0.61713   1.000
    O100    O    0.50049   0.82019   0.59810   1.000
    O101    O    0.49926   0.89565   0.61713   1.000
    O102    O    0.50064   0.77937   0.65678   1.000
    O103    O    0.99999   0.77944   0.65681   1.000
    O104    O    0.49940   0.85483   0.67581   1.000
    O105    O    0.99994   0.85494   0.67583   1.000
    O106    O    0.49941   0.35495   0.82426   1.000
    O107    O    0.50063   0.27961   0.84363   1.000
    O108    O    0.99995   0.35501   0.82428   1.000
    O109    O    1.00000   0.27963   0.84364   1.000
    O110    O    0.49937   0.39614   0.88271   1.000
    O111    O    0.99996   0.39617   0.88274   1.000
    O112    O    0.50058   0.32080   0.90208   1.000
    O113    O    0.00000   0.32079   0.90210   1.000
    O114    O    0.49944   0.61438   0.93883   1.000
    O115    O    0.50055   0.69055   0.95593   1.000
    O116    O    0.99997   0.61441   0.93880   1.000
    O117    O    0.99995   0.69059   0.95594   1.000
    O118    O    0.49942   0.47995   0.94086   1.000
    O119    O    0.99999   0.47995   0.94084   1.000
    N120    N    0.25002   0.60101   0.05909   1.000
    O121    O    0.35005   0.60288   0.05977   1.000
    O122    O    0.14997   0.60281   0.05966   1.000
    N123    N    0.75003   0.60065   0.05897   1.000
    O124    O    0.64998   0.60252   0.05960   1.000
    O125    O    0.85006   0.60263   0.05964   1.000
    N126    N    0.24993   0.39870   0.94113   1.000
    O127    O    0.14990   0.39700   0.94044   1.000
    O128    O    0.34998   0.39688   0.94042   1.000
    N129    N    0.24978   0.89895   0.55889   1.000
    O130    O    0.34981   0.89692   0.55947   1.000
    O131    O    0.14974   0.89689   0.55956   1.000
    N132    N    0.74994   0.39962   0.94066   1.000
    O133    O    0.84999   0.39756   0.94012   1.000
    O134    O    0.64990   0.39770   0.94010   1.000
    N135    N    0.50003   0.23334   0.69409   1.000
    O136    O    0.50003   0.20569   0.64701   1.000
    O137    O    0.50003   0.26135   0.74104   1.000
    N138    N    0.75019   0.10099   0.44109   1.000
    O139    O    0.65015   0.10301   0.44050   1.000
    O140    O    0.85023   0.10306   0.44043   1.000
    N141    N    0.99993   0.23339   0.69410   1.000
    O142    O    0.99994   0.20573   0.64702   1.000
    O143    O    0.99994   0.26141   0.74104   1.000
    N144    N    0.49996   0.76659   0.30586   1.000
    O145    O    0.49996   0.73859   0.25892   1.000
    O146    O    0.49997   0.79423   0.35295   1.000
    N147    N    0.99993   0.73387   0.80645   1.000
    O148    O    0.99993   0.70631   0.85359   1.000
    O149    O    0.99995   0.76172   0.75943   1.000
    N150    N    0.50015   0.26616   0.19353   1.000
    O151    O    0.50009   0.23831   0.24054   1.000
    O152    O    0.50016   0.29370   0.14639   1.000
    N153    N    0.25019   0.10073   0.44085   1.000
    O154    O    0.35024   0.10284   0.44023   1.000
    O155    O    0.15013   0.10287   0.44032   1.000
    N156    N    0.50005   0.73379   0.80643   1.000
    O157    O    0.50003   0.70625   0.85356   1.000
    O158    O    0.50005   0.76163   0.75941   1.000
    N159    N    0.74978   0.89920   0.55913   1.000
    O160    O    0.64973   0.89709   0.55975   1.000
    O161    O    0.84984   0.89707   0.55966   1.000
    N162    N    0.99999   0.26609   0.19352   1.000
    O163    O    0.99999   0.23824   0.24054   1.000
    O164    O    0.99999   0.29365   0.14638   1.000
    N165    N    0.00003   0.76655   0.30586   1.000
    O166    O    0.00003   0.79421   0.35295   1.000
    O167    O    0.00004   0.73854   0.25892   1.000
loop_
    _geom_bond_atom_site_label_1
    _geom_bond_atom_site_label_2
    _geom_bond_distance
    _geom_bond_site_symmetry_2
    _ccdc_geom_bond_type
    Zr24   O56       0.63782      .   S
    Zr8    O56       0.63782  1_455   S
    Zr24   O57       1.18662  1_554   S
    Zr0    O57       1.18662      .   S
    Zr25   O58       0.63780      .   S
    Zr9    O58       0.63780      .   S
    Zr25   O59       1.18690  1_554   S
    Zr1    O59       1.18690      .   S
    Zr27   O60       1.22929      .   S
    Zr3    O60       1.22929      .   S
    Zr27   O61       0.64135      .   S
    Zr9    O61       0.64135      .   S
    Zr26   O62       1.22939      .   S
    Zr2    O62       1.22939  1_455   S
    Zr26   O63       0.64134      .   S
    Zr8    O63       0.64134  1_455   S
    Zr2    O64       1.23619  1_455   S
    Zr54   O64       1.23619      .   S
    Zr2    O65       1.17704      .   S
    Zr52   O65       1.17704      .   S
    Zr2    O66       1.18662  1_455   S
    Zr32   O66       1.18662  1_556   S
    Zr3    O67       1.23647      .   S
    Zr55   O67       1.23647      .   S
    Zr3    O68       1.17709      .   S
    Zr53   O68       1.17709      .   S
    Zr3    O69       1.18684      .   S
    Zr33   O69       1.18684  1_556   S
    Zr54   O70       0.63434      .   S
    Zr22   O70       0.63434  1_455   S
    Zr55   O71       0.63434      .   S
    Zr23   O71       0.63434      .   S
    Zr52   O72       0.64259      .   S
    Zr22   O72       0.64259      .   S
    Zr53   O73       0.64258      .   S
    Zr23   O73       0.64258      .   S
    Zr11   O74       0.64237      .   S
    Zr29   O74       0.64237      .   S
    Zr11   O75       0.63458      .   S
    Zr31   O75       0.63458      .   S
    Zr10   O76       0.64232      .   S
    Zr28   O76       0.64232      .   S
    Zr10   O77       0.63437  1_455   S
    Zr30   O77       0.63437      .   S
    Zr28   O78       1.17809      .   S
    Zr4    O78       1.17809      .   S
    Zr29   O79       1.17786      .   S
    Zr5    O79       1.17786      .   S
    Zr30   O80       1.23739  1_655   S
    Zr4    O80       1.23739      .   S
    Zr31   O81       1.23786      .   S
    Zr5    O81       1.23786      .   S
    Zr20   O82       0.64091  1_455   S
    Zr50   O82       0.64091      .   S
    Zr20   O83       0.63813  1_455   S
    Zr48   O83       0.63813      .   S
    Zr21   O84       0.64094      .   S
    Zr51   O84       0.64094      .   S
    Zr21   O85       0.63809      .   S
    Zr49   O85       0.63809      .   S
    Zr5    O86       1.22951      .   S
    Zr51   O86       1.22951  1_565   S
    Zr5    O87       1.18647      .   S
    Zr41   O87       1.18647      .   S
    Zr4    O88       1.22980      .   S
    Zr50   O88       1.22980  1_665   S
    Zr4    O89       1.18626      .   S
    Zr40   O89       1.18626      .   S
    Zr48   O90       1.18629      .   S
    Zr6    O90       1.18629      .   S
    Zr49   O91       1.18646      .   S
    Zr7    O91       1.18646      .   S
    Zr41   O92       0.63814      .   S
    Zr17   O92       0.63814      .   S
    Zr40   O93       0.63817  1_455   S
    Zr16   O93       0.63817      .   S
    Zr43   O94       1.22945  1_545   S
    Zr7    O94       1.22945      .   S
    Zr43   O95       0.64093      .   S
    Zr17   O95       0.64093      .   S
    Zr42   O96       1.22969  1_545   S
    Zr6    O96       1.22969      .   S
    Zr42   O97       0.64092      .   S
    Zr16   O97       0.64092      .   S
    Zr6    O98       1.23726      .   S
    Zr38   O98       1.23726  1_455   S
    Zr6    O99       1.17819      .   S
    Zr36   O99       1.17819      .   S
    Zr7    O100      1.23765      .   S
    Zr39   O100      1.23765      .   S
    Zr7    O101      1.17807      .   S
    Zr37   O101      1.17807      .   S
    Zr39   O102      0.63434      .   S
    Zr15   O102      0.63434      .   S
    Zr38   O103      0.63433  1_455   S
    Zr14   O103      0.63433      .   S
    Zr37   O104      0.64230      .   S
    Zr15   O104      0.64230      .   S
    Zr36   O105      0.64229      .   S
    Zr14   O105      0.64229      .   S
    Zr19   O106      0.64255      .   S
    Zr45   O106      0.64255      .   S
    Zr19   O107      0.63423      .   S
    Zr47   O107      0.63423      .   S
    Zr18   O108      0.64255      .   S
    Zr44   O108      0.64255      .   S
    Zr18   O109      0.63436      .   S
    Zr46   O109      0.63436  1_455   S
    Zr45   O110      1.17761      .   S
    Zr1    O110      1.17761      .   S
    Zr44   O111      1.17746      .   S
    Zr0    O111      1.17746      .   S
    Zr47   O112      1.23617      .   S
    Zr1    O112      1.23617      .   S
    Zr46   O113      1.23599      .   S
    Zr0    O113      1.23599  1_655   S
    Zr13   O114      0.64136      .   S
    Zr35   O114      0.64136      .   S
    Zr13   O115      0.63772      .   S
    Zr33   O115      0.63772      .   S
    Zr12   O116      0.64126      .   S
    Zr34   O116      0.64126  1_455   S
    Zr12   O117      0.63771      .   S
    Zr32   O117      0.63771      .   S
    Zr1    O118      1.22922      .   S
    Zr35   O118      1.22922      .   S
    Zr0    O119      1.22930      .   S
    Zr34   O119      1.22930  1_455   S
    N120   O121      2.37311      .   S
    Zr3    O121      3.55839      .   S
    N120   O122      2.37334      .   S
    Zr2    O122      3.55909      .   S
    N123   O124      2.37352      .   S
    Zr3    O124      3.55957      .   S
    N123   O125      2.37311      .   S
    Zr2    O125      3.55835  1_455   S
    N126   O127      2.37307      .   S
    Zr0    O127      3.55803  1_655   S
    N126   O128      2.37340      .   S
    Zr1    O128      3.55888      .   S
    N129   O130      2.37328      .   S
    Zr7    O130      3.55848      .   S
    N129   O131      2.37320      .   S
    Zr6    O131      3.55813  1_655   S
    N132   O133      2.37360      .   S
    Zr0    O133      3.55929      .   S
    N132   O134      2.37339      .   S
    Zr1    O134      3.55881      .   S
    N135   O136      1.07763      .   S
    Zr17   O136      1.82630      .   S
    N135   O137      1.07658      .   S
    Zr19   O137      1.82778      .   S
    N138   O139      2.37331      .   S
    Zr5    O139      3.55858      .   S
    N138   O140      2.37325      .   S
    Zr4    O140      3.55825  1_455   S
    N141   O142      1.07761      .   S
    Zr16   O142      1.82623      .   S
    N141   O143      1.07657      .   S
    Zr18   O143      1.82783      .   S
    N144   O145      1.07655      .   S
    Zr23   O145      1.82775      .   S
    N144   O146      1.07774      .   S
    Zr21   O146      1.82642      .   S
    N147   O148      1.07773      .   S
    Zr12   O148      1.82631      .   S
    N147   O149      1.07669      .   S
    Zr14   O149      1.82811      .   S
    N150   O151      1.07672      .   S
    Zr11   O151      1.82774      .   S
    N150   O152      1.07762      .   S
    Zr9    O152      1.82617      .   S
    N153   O154      2.37375      .   S
    Zr5    O154      3.55910      .   S
    N153   O155      2.37376      .   S
    Zr4    O155      3.55926      .   S
    N156   O157      1.07749      .   S
    Zr13   O157      1.82671      .   S
    N156   O158      1.07672      .   S
    Zr15   O158      1.82807      .   S
    N159   O160      2.37378      .   S
    Zr7    O160      3.55919      .   S
    N159   O161      2.37380      .   S
    Zr6    O161      3.55937      .   S
    N162   O163      1.07671      .   S
    Zr10   O163      1.82810  1_455   S
    N162   O164      1.07771      .   S
    Zr8    O164      1.82624  1_455   S
    N165   O166      1.07777      .   S
    Zr20   O166      1.82652      .   S
    N165   O167      1.07646      .   S
    Zr22   O167      1.82772      .   S
