# CIF file generated by openbabel 2.4.90, see http://openbabel.sf.net
data_I
_chemical_name_common ''
_cell_length_a 10.1035
_cell_length_b 11.5595
_cell_length_c 14.892
_cell_angle_alpha 91.046
_cell_angle_beta 90.032
_cell_angle_gamma 90.037
_space_group_name_H-M_alt 'P 1'
_space_group_name_Hall 'P 1'
loop_
    _symmetry_equiv_pos_as_xyz
    x,y,z
loop_
    _atom_site_label
    _atom_site_type_symbol
    _atom_site_fract_x
    _atom_site_fract_y
    _atom_site_fract_z
    _atom_site_occupancy
    Zr0     Zr   0.07177   0.24525   0.87038   1.000
    Zr1     Zr   0.88250   0.25930   0.69127   1.000
    Zr2     Zr   0.57171   0.25471   0.62959   1.000
    Zr3     Zr   0.38248   0.24049   0.80865   1.000
    Zr4     Zr   0.92822   0.75474   0.12964   1.000
    Zr5     Zr   0.11750   0.74069   0.30875   1.000
    Zr6     Zr   0.42829   0.74528   0.37044   1.000
    Zr7     Zr   0.61752   0.75950   0.19137   1.000
    Zr8     Zr   0.00000   0.50001   1.00000   1.000
    Zr9     Zr   0.50000   0.99999   0.50001   1.000
    Zr10    Zr   1.00000   0.00000   0.00000   1.000
    Zr11    Zr   0.50000   0.50000   0.50001   1.000
    N12     N    0.27205   0.07021   0.94205   1.000
    O13     O    0.32450   0.12291   0.89870   1.000
    O14     O    0.19200   0.12234   0.92284   1.000
    O15     O    0.17406   0.06103   0.95525   1.000
    N16     N    0.97300   0.47895   0.79275   1.000
    O17     O    0.95187   0.39668   0.76569   1.000
    O18     O    0.99919   0.39317   0.81047   1.000
    O19     O    0.98522   0.49953   0.86186   1.000
    N20     N    0.83983   0.82412   0.32747   1.000
    O21     O    0.85462   0.80086   0.25766   1.000
    O22     O    0.77695   0.80205   0.27309   1.000
    O23     O    0.93714   0.80102   0.33203   1.000
    N24     N    0.28248   0.42380   0.94687   1.000
    O25     O    0.22136   0.36027   0.91283   1.000
    O26     O    0.29903   0.35908   0.89740   1.000
    O27     O    0.19309   0.45758   0.97343   1.000
    N28     N    0.86390   0.04951   0.81993   1.000
    O29     O    0.90420   0.01984   0.88051   1.000
    O30     O    0.92792   0.12354   0.82977   1.000
    O31     O    0.88060   0.12705   0.78499   1.000
    N32     N    0.77200   0.42966   0.55792   1.000
    O33     O    0.82447   0.37692   0.60126   1.000
    O34     O    0.69194   0.37757   0.57714   1.000
    O35     O    0.67402   0.43889   0.54474   1.000
    N36     N    0.60029   0.75759   0.53359   1.000
    O37     O    0.53916   0.76865   0.47938   1.000
    O38     O    0.55708   0.83233   0.51178   1.000
    O39     O    0.57782   0.66611   0.52652   1.000
    N40     N    0.78196   0.07729   0.55227   1.000
    O41     O    0.69267   0.04358   0.52627   1.000
    O42     O    0.72099   0.14014   0.58662   1.000
    O43     O    0.79869   0.14129   0.60204   1.000
    N44     N    0.09967   0.74243   0.96633   1.000
    O45     O    0.03871   0.73139   0.02061   1.000
    O46     O    0.05666   0.66770   0.98820   1.000
    O47     O    0.07745   0.83391   0.97345   1.000
    N48     N    0.33954   0.67609   0.17267   1.000
    O49     O    0.35444   0.69929   0.24247   1.000
    O50     O    0.27675   0.69814   0.22705   1.000
    O51     O    0.43693   0.69916   0.16813   1.000
    N52     N    0.22799   0.57033   0.44210   1.000
    O53     O    0.17553   0.62307   0.39876   1.000
    O54     O    0.30805   0.62242   0.42289   1.000
    O55     O    0.32598   0.56110   0.45528   1.000
    N56     N    0.02700   0.52103   0.20726   1.000
    O57     O    0.04812   0.60331   0.23433   1.000
    O58     O    0.00080   0.60682   0.18955   1.000
    O59     O    0.01479   0.50046   0.13815   1.000
    N60     N    0.13610   0.95048   0.18009   1.000
    O61     O    0.07208   0.87645   0.17026   1.000
    O62     O    0.11940   0.87294   0.21503   1.000
    O63     O    0.09580   0.98016   0.11951   1.000
    N64     N    0.16017   0.17587   0.67255   1.000
    O65     O    0.06286   0.19897   0.66799   1.000
    O66     O    0.14537   0.19914   0.74237   1.000
    O67     O    0.22305   0.19795   0.72693   1.000
    N68     N    0.21804   0.92269   0.44776   1.000
    O69     O    0.30733   0.95640   0.47376   1.000
    O70     O    0.27900   0.85984   0.41341   1.000
    O71     O    0.20131   0.85869   0.39799   1.000
    N72     N    0.72794   0.92979   0.05797   1.000
    O73     O    0.80799   0.87766   0.07718   1.000
    O74     O    0.82593   0.93897   0.04477   1.000
    O75     O    0.67549   0.87708   0.10133   1.000
    N76     N    0.39970   0.24240   0.46644   1.000
    O77     O    0.42218   0.33388   0.47351   1.000
    O78     O    0.44291   0.16766   0.48825   1.000
    O79     O    0.46084   0.23134   0.52064   1.000
    N80     N    0.71752   0.57617   0.05396   1.000
    O81     O    0.77864   0.63970   0.08759   1.000
    O82     O    0.70096   0.64089   0.10302   1.000
    O83     O    0.80691   0.54240   0.02778   1.000
    N84     N    0.52430   0.97896   0.29246   1.000
    O85     O    0.54680   0.89671   0.26560   1.000
    O86     O    0.49950   0.89315   0.31037   1.000
    O87     O    0.51225   0.99950   0.36158   1.000
    N88     N    0.66046   0.32390   0.82735   1.000
    O89     O    0.56307   0.30083   0.83190   1.000
    O90     O    0.64555   0.30071   0.75755   1.000
    O91     O    0.72325   0.30185   0.77297   1.000
    N92     N    0.36384   0.45038   0.67994   1.000
    O93     O    0.40418   0.48010   0.61942   1.000
    O94     O    0.42789   0.37639   0.67015   1.000
    O95     O    0.38058   0.37283   0.71491   1.000
    N96     N    0.90034   0.25757   0.03369   1.000
    O97     O    0.96129   0.26861   0.97941   1.000
    O98     O    0.94335   0.33230   0.01182   1.000
    O99     O    0.92255   0.16610   0.02657   1.000
    N100    N    0.63616   0.54962   0.32009   1.000
    O101    O    0.59581   0.51990   0.38061   1.000
    O102    O    0.57211   0.62360   0.32988   1.000
    O103    O    0.61942   0.62716   0.28511   1.000
    N104    N    0.47570   0.02104   0.70756   1.000
    O105    O    0.48774   0.00049   0.63845   1.000
    O106    O    0.45319   0.10329   0.73442   1.000
    O107    O    0.50050   0.10684   0.68966   1.000
loop_
    _geom_bond_atom_site_label_1
    _geom_bond_atom_site_label_2
    _geom_bond_distance
    _geom_bond_site_symmetry_2
    _ccdc_geom_bond_type
    N12    O13       1.04080      .   S
    Zr3    O13       2.01367      .   S
    N12    O14       1.05152      .   S
    Zr0    O14       2.03627      .   S
    N12    O15       1.01528      .   S
    Zr10   O15       2.01284  1_654   S
    N16    O17       1.04788      .   S
    Zr1    O17       2.04319      .   S
    N16    O18       1.06435      .   S
    Zr0    O18       2.07703  1_455   S
    N16    O19       1.05917      .   S
    Zr8    O19       2.06243  1_455   S
    N20    O21       1.07961      .   S
    Zr4    O21       2.10627      .   S
    N20    O22       1.05651      .   S
    Zr7    O22       2.07184      .   S
    N20    O23       1.02153      .   S
    Zr5    O23       1.98007  1_455   S
    N24    O25       1.07840      .   S
    Zr0    O25       2.10176      .   S
    N24    O26       1.05378      .   S
    Zr3    O26       2.06725      .   S
    N24    O27       1.05822      .   S
    Zr8    O27       2.04886      .   S
    N28    O29       1.05275      .   S
    Zr10   O29       2.04190  1_554   S
    N28    O30       1.08016      .   S
    Zr0    O30       2.10306  1_455   S
    N28    O31       1.05810      .   S
    Zr1    O31       2.08885      .   S
    N32    O33       1.04097      .   S
    Zr1    O33       2.01386      .   S
    N32    O34       1.05105      .   S
    Zr2    O34       2.03520      .   S
    N32    O35       1.01524      .   S
    Zr11   O35       2.01283      .   S
    N36    O37       1.02606      .   S
    Zr6    O37       1.98535      .   S
    N36    O38       1.02614      .   S
    Zr9    O38       2.03311      .   S
    N36    O39       1.08468      .   S
    Zr11   O39       2.10504      .   S
    N40    O41       1.05324      .   S
    Zr9    O41       2.04620  1_565   S
    N40    O42       1.07528      .   S
    Zr2    O42       2.10024      .   S
    N40    O43       1.05111      .   S
    Zr1    O43       2.06758      .   S
    N44    O45       1.02626  1_556   S
    Zr4    O45       1.98543  1_655   S
    N44    O46       1.02520      .   S
    Zr8    O46       2.03157      .   S
    N44    O47       1.08444      .   S
    Zr10   O47       2.10468  1_644   S
    N48    O49       1.07918      .   S
    Zr6    O49       2.10518      .   S
    N48    O50       1.05661      .   S
    Zr5    O50       2.07183      .   S
    N48    O51       1.02193      .   S
    Zr7    O51       1.98097      .   S
    N52    O53       1.04096      .   S
    Zr5    O53       2.01385      .   S
    N52    O54       1.05106      .   S
    Zr6    O54       2.03523      .   S
    N52    O55       1.01524      .   S
    Zr11   O55       2.01282      .   S
    N56    O57       1.04791      .   S
    Zr5    O57       2.04326      .   S
    N56    O58       1.06435      .   S
    Zr4    O58       2.07704  1_655   S
    N56    O59       1.05925      .   S
    Zr8    O59       2.06264  1_556   S
    N60    O61       1.08015      .   S
    Zr4    O61       2.10307  1_655   S
    N60    O62       1.05810      .   S
    Zr5    O62       2.08886      .   S
    N60    O63       1.05283      .   S
    Zr10   O63       2.04212  1_645   S
    N64    O65       1.02154      .   S
    Zr1    O65       1.98008  1_655   S
    N64    O66       1.07961      .   S
    Zr0    O66       2.10629      .   S
    N64    O67       1.05650      .   S
    Zr3    O67       2.07183      .   S
    N68    O69       1.05322      .   S
    Zr9    O69       2.04617      .   S
    N68    O70       1.07528      .   S
    Zr6    O70       2.10023      .   S
    N68    O71       1.05111      .   S
    Zr5    O71       2.06759      .   S
    N72    O73       1.05152      .   S
    Zr4    O73       2.03627      .   S
    N72    O74       1.01532      .   S
    Zr10   O74       2.01298  1_545   S
    N72    O75       1.04079      .   S
    Zr7    O75       2.01366      .   S
    N76    O77       1.08469      .   S
    Zr11   O77       2.10504      .   S
    N76    O78       1.02615      .   S
    Zr9    O78       2.03312  1_565   S
    N76    O79       1.02607      .   S
    Zr2    O79       1.98536      .   S
    N80    O81       1.07576      .   S
    Zr4    O81       2.10015      .   S
    N80    O82       1.04976      .   S
    Zr7    O82       2.06361      .   S
    N80    O83       1.05610      .   S
    Zr8    O83       2.05237  1_456   S
    N84    O85       1.04987      .   S
    Zr7    O85       2.04599      .   S
    N84    O86       1.06164      .   S
    Zr6    O86       2.07230      .   S
    N84    O87       1.05912      .   S
    Zr9    O87       2.06527      .   S
    N88    O89       1.02193      .   S
    Zr3    O89       1.98097      .   S
    N88    O90       1.07918      .   S
    Zr2    O90       2.10517      .   S
    N88    O91       1.05662      .   S
    Zr1    O91       2.07184      .   S
    N92    O93       1.05261      .   S
    Zr11   O93       2.04171      .   S
    N92    O94       1.08057      .   S
    Zr2    O94       2.10412      .   S
    N92    O95       1.05849      .   S
    Zr3    O95       2.08988      .   S
    N96    O97       1.02624  1_554   S
    Zr0    O97       1.98538  1_455   S
    N96    O98       1.02527      .   S
    Zr8    O98       2.03171  1_456   S
    N96    O99       1.08442      .   S
    Zr10   O99       2.10466      .   S
    N100   O101      1.05261      .   S
    Zr11   O101      2.04171      .   S
    N100   O102      1.08057      .   S
    Zr6    O102      2.10411      .   S
    N100   O103      1.05849      .   S
    Zr7    O103      2.08989      .   S
    N104   O105      1.05912      .   S
    Zr9    O105      2.06528  1_565   S
    N104   O106      1.04987      .   S
    Zr3    O106      2.04598      .   S
    N104   O107      1.06164      .   S
    Zr2    O107      2.07230      .   S
