# CIF file generated by openbabel 2.4.90, see http://openbabel.sf.net
data_I
_chemical_name_common ''
_cell_length_a 23.716
_cell_length_b 14.398
_cell_length_c 17.462
_cell_angle_alpha 89.922
_cell_angle_beta 93.421
_cell_angle_gamma 87.6
_space_group_name_H-M_alt 'P 1'
_space_group_name_Hall 'P 1'
loop_
    _symmetry_equiv_pos_as_xyz
    x,y,z
loop_
    _atom_site_label
    _atom_site_type_symbol
    _atom_site_fract_x
    _atom_site_fract_y
    _atom_site_fract_z
    _atom_site_occupancy
    Lv0     Lv   0.75518   0.37036   0.01996   1.000
    Lv1     Lv   0.98813   0.98620   0.17991   1.000
    Lv2     Lv   0.74828   0.13461   0.51665   1.000
    Lv3     Lv   0.51327   0.48505   0.32090   1.000
    Lv4     Lv   0.75278   0.86057   0.48166   1.000
    Lv5     Lv   0.48791   0.98678   0.18062   1.000
    Lv6     Lv   0.25115   0.62994   0.98030   1.000
    Lv7     Lv   0.24814   0.13801   0.51774   1.000
    Lv8     Lv   0.75171   0.63247   0.98357   1.000
    Lv9     Lv   0.01116   0.48454   0.32151   1.000
    Lv10    Lv   0.25496   0.36353   0.01916   1.000
    Lv11    Lv   0.01578   0.00987   0.82039   1.000
    Lv12    Lv   0.48871   0.51255   0.68020   1.000
    Lv13    Lv   0.98750   0.51207   0.67995   1.000
    Lv14    Lv   0.48876   0.01112   0.81710   1.000
    Lv15    Lv   0.25300   0.86227   0.48410   1.000
