# CIF file generated by openbabel 2.4.90, see http://openbabel.sf.net
data_I
_chemical_name_common ''
_cell_length_a 23.716
_cell_length_b 14.398
_cell_length_c 17.462
_cell_angle_alpha 89.922
_cell_angle_beta 93.421
_cell_angle_gamma 87.6
_space_group_name_H-M_alt 'P 1'
_space_group_name_Hall 'P 1'
loop_
    _symmetry_equiv_pos_as_xyz
    x,y,z
loop_
    _atom_site_label
    _atom_site_type_symbol
    _atom_site_fract_x
    _atom_site_fract_y
    _atom_site_fract_z
    _atom_site_occupancy
    C0      C    0.99253   0.30212   0.59702   1.000
    C1      C    0.49516   0.30278   0.59699   1.000
    C2      C    0.99681   0.43016   0.86166   1.000
    C3      C    0.49831   0.42991   0.86163   1.000
    C4      C    0.00681   0.56640   0.13990   1.000
    C5      C    0.50614   0.56686   0.13913   1.000
    C6      C    0.00880   0.69422   0.40467   1.000
    C7      C    0.50766   0.69463   0.40422   1.000
    C8      C    0.99372   0.06762   0.36129   1.000
    C9      C    0.49387   0.06966   0.36149   1.000
    C10     C    0.99943   0.19379   0.09614   1.000
    C11     C    0.50163   0.19303   0.09597   1.000
    C12     C    0.00814   0.92874   0.63900   1.000
    C13     C    0.50431   0.92928   0.63838   1.000
    C14     C    0.00753   0.80153   0.90427   1.000
    C15     C    0.49645   0.80199   0.90240   1.000
