# CIF file generated by openbabel 2.4.90, see http://openbabel.sf.net
data_I
_chemical_name_common ''
_cell_length_a 23.716
_cell_length_b 14.398
_cell_length_c 17.462
_cell_angle_alpha 89.922
_cell_angle_beta 93.421
_cell_angle_gamma 87.6
_space_group_name_H-M_alt 'P 1'
_space_group_name_Hall 'P 1'
loop_
    _symmetry_equiv_pos_as_xyz
    x,y,z
loop_
    _atom_site_label
    _atom_site_type_symbol
    _atom_site_fract_x
    _atom_site_fract_y
    _atom_site_fract_z
    _atom_site_occupancy
    C0      C    0.00159   0.63662   0.98508   1.000
    C1      C    0.50113   0.63620   0.98445   1.000
    C2      C    0.00504   0.36007   0.01662   1.000
    C3      C    0.50527   0.35960   0.01620   1.000
    C4      C    0.00286   0.86060   0.48441   1.000
    C5      C    0.50293   0.86128   0.48404   1.000
    C6      C    0.99834   0.13649   0.51627   1.000
    C7      C    0.49804   0.13726   0.51611   1.000
    C8      C    0.39605   0.54119   0.88920   1.000
    C9      C    0.89608   0.55260   0.88702   1.000
    C10     C    0.29233   0.73492   0.06934   1.000
    C11     C    0.79347   0.72489   0.08159   1.000
    C12     C    0.39716   0.73200   0.06630   1.000
    C13     C    0.89853   0.72271   0.07803   1.000
    C14     C    0.29095   0.53376   0.88535   1.000
    C15     C    0.79071   0.54619   0.88256   1.000
    C16     C    0.40235   0.46114   0.10630   1.000
    C17     C    0.90393   0.45500   0.11500   1.000
    C18     C    0.29468   0.26058   0.92946   1.000
    C19     C    0.79281   0.28216   0.92100   1.000
    C20     C    0.39914   0.26883   0.93020   1.000
    C21     C    0.89798   0.28901   0.92199   1.000
    C22     C    0.29740   0.46396   0.11184   1.000
    C23     C    0.79877   0.45776   0.12189   1.000
    C24     C    0.10072   0.91505   0.37354   1.000
    C25     C    0.60042   0.91515   0.37156   1.000
    C26     C    0.21872   0.81092   0.60074   1.000
    C27     C    0.71856   0.80824   0.59779   1.000
    C28     C    0.11322   0.81679   0.59677   1.000
    C29     C    0.61295   0.81590   0.59439   1.000
    C30     C    0.20541   0.91110   0.36627   1.000
    C31     C    0.70508   0.90952   0.36364   1.000
    C32     C    0.10889   0.03578   0.60169   1.000
    C33     C    0.60867   0.03288   0.60020   1.000
    C34     C    0.19994   0.24868   0.43249   1.000
    C35     C    0.70043   0.24562   0.43173   1.000
    C36     C    0.09579   0.23940   0.43292   1.000
    C37     C    0.59619   0.23749   0.43220   1.000
    C38     C    0.21418   0.03218   0.60570   1.000
    C39     C    0.71392   0.02821   0.60411   1.000
    C40     C    0.11228   0.39887   0.13307   1.000
    C41     C    0.61326   0.37012   0.13763   1.000
    C42     C    0.21055   0.32748   0.89922   1.000
    C43     C    0.71044   0.36938   0.89699   1.000
    C44     C    0.10563   0.32764   0.90341   1.000
    C45     C    0.60553   0.36556   0.90050   1.000
    C46     C    0.21763   0.39756   0.14044   1.000
    C47     C    0.71890   0.37130   0.14509   1.000
    C48     C    0.09941   0.59346   0.86900   1.000
    C49     C    0.59954   0.62647   0.86738   1.000
    C50     C    0.21726   0.65668   0.10244   1.000
    C51     C    0.71807   0.63143   0.10772   1.000
    C52     C    0.11220   0.64984   0.10135   1.000
    C53     C    0.61276   0.62728   0.10450   1.000
    C54     C    0.20369   0.60035   0.85885   1.000
    C55     C    0.70438   0.63137   0.85965   1.000
    C56     C    0.40049   0.08375   0.62746   1.000
    C57     C    0.90068   0.08151   0.62702   1.000
    C58     C    0.28227   0.19131   0.40156   1.000
    C59     C    0.78256   0.18663   0.40020   1.000
    C60     C    0.38771   0.18589   0.40534   1.000
    C61     C    0.88800   0.18113   0.40420   1.000
    C62     C    0.29601   0.08859   0.63534   1.000
    C63     C    0.79601   0.08530   0.63440   1.000
    C64     C    0.39272   0.96514   0.40184   1.000
    C65     C    0.89265   0.96190   0.39864   1.000
    C66     C    0.30073   0.74994   0.56805   1.000
    C67     C    0.80043   0.74871   0.56631   1.000
    C68     C    0.40491   0.75732   0.56714   1.000
    C69     C    0.90466   0.75706   0.56634   1.000
    C70     C    0.28738   0.96992   0.39789   1.000
    C71     C    0.78726   0.96624   0.39400   1.000
    C72     C    0.98711   0.59855   0.78573   1.000
    C73     C    0.48660   0.59857   0.78614   1.000
    C74     C    0.98140   0.48489   0.55626   1.000
    C75     C    0.48205   0.48564   0.55640   1.000
    C76     C    0.99716   0.30176   0.75060   1.000
    C77     C    0.50249   0.30231   0.75056   1.000
    C78     C    0.98819   0.64769   0.57952   1.000
    C79     C    0.48787   0.64860   0.58004   1.000
    C80     C    0.98946   0.69607   0.66739   1.000
    C81     C    0.48871   0.69664   0.66806   1.000
    C82     C    0.01416   0.39818   0.21565   1.000
    C83     C    0.51377   0.39864   0.21499   1.000
    C84     C    0.01859   0.51154   0.44518   1.000
    C85     C    0.51794   0.51204   0.44450   1.000
    C86     C    0.00645   0.69500   0.25094   1.000
    C87     C    0.50539   0.69546   0.25023   1.000
    C88     C    0.01196   0.34895   0.42187   1.000
    C89     C    0.51245   0.34965   0.42151   1.000
    C90     C    0.01076   0.30046   0.33398   1.000
    C91     C    0.51033   0.30096   0.33379   1.000
    C92     C    0.98390   0.90086   0.28590   1.000
    C93     C    0.48252   0.90262   0.28710   1.000
    C94     C    0.98441   0.01368   0.05618   1.000
    C95     C    0.48566   0.01298   0.05702   1.000
    C96     C    0.00204   0.19448   0.25011   1.000
    C97     C    0.50443   0.19501   0.24990   1.000
    C98     C    0.98586   0.85033   0.07972   1.000
    C99     C    0.48128   0.85095   0.08034   1.000
    C100    C    0.98719   0.80214   0.16784   1.000
    C101    C    0.48521   0.80262   0.16881   1.000
    C102    C    0.01714   0.09573   0.71436   1.000
    C103    C    0.48947   0.09738   0.71120   1.000
    C104    C    0.02001   0.98218   0.94400   1.000
    C105    C    0.47861   0.98361   0.93891   1.000
    C106    C    0.00437   0.80089   0.75033   1.000
    C107    C    0.50869   0.80141   0.75053   1.000
    C108    C    0.01839   0.14628   0.92098   1.000
    C109    C    0.48087   0.14704   0.91655   1.000
    C110    C    0.01731   0.19451   0.83235   1.000
    C111    C    0.48496   0.19547   0.82911   1.000
    C112    C    0.37097   0.58285   0.92785   1.000
    C113    C    0.87125   0.58978   0.92869   1.000
    C114    C    0.31332   0.68942   0.02900   1.000
    C115    C    0.81431   0.68441   0.03793   1.000
    C116    C    0.37189   0.68870   0.02752   1.000
    C117    C    0.87288   0.68404   0.03610   1.000
    C118    C    0.28209   0.63317   0.97804   1.000
    C119    C    0.78277   0.63463   0.98249   1.000
    C120    C    0.31240   0.57989   0.92583   1.000
    C121    C    0.81266   0.58716   0.92650   1.000
    C122    C    0.37641   0.41816   0.06816   1.000
    C123    C    0.87727   0.41804   0.07324   1.000
    C124    C    0.31630   0.30775   0.96888   1.000
    C125    C    0.81543   0.32294   0.96442   1.000
    C126    C    0.37482   0.31138   0.96924   1.000
    C127    C    0.87396   0.32570   0.96485   1.000
    C128    C    0.28624   0.36281   0.02027   1.000
    C129    C    0.78640   0.37058   0.02121   1.000
    C130    C    0.31796   0.41846   0.07120   1.000
    C131    C    0.81883   0.41847   0.07689   1.000
    C132    C    0.12874   0.89277   0.42254   1.000
    C133    C    0.62849   0.89218   0.42031   1.000
    C134    C    0.19455   0.83360   0.54850   1.000
    C135    C    0.69435   0.83148   0.54580   1.000
    C136    C    0.13585   0.83735   0.54724   1.000
    C137    C    0.63567   0.83612   0.54485   1.000
    C138    C    0.22181   0.86116   0.48352   1.000
    C139    C    0.72158   0.85903   0.48073   1.000
    C140    C    0.18722   0.89082   0.41929   1.000
    C141    C    0.68695   0.88930   0.41671   1.000
    C142    C    0.13128   0.08109   0.56493   1.000
    C143    C    0.63114   0.07820   0.56356   1.000
    C144    C    0.18210   0.19865   0.47009   1.000
    C145    C    0.68240   0.19559   0.46914   1.000
    C146    C    0.12362   0.19460   0.47040   1.000
    C147    C    0.62388   0.19218   0.46958   1.000
    C148    C    0.21693   0.14006   0.51875   1.000
    C149    C    0.71706   0.13648   0.51758   1.000
    C150    C    0.18993   0.08050   0.56726   1.000
    C151    C    0.68982   0.07697   0.56589   1.000
    C152    C    0.13607   0.38330   0.08273   1.000
    C153    C    0.63684   0.37054   0.08580   1.000
    C154    C    0.19095   0.34269   0.95289   1.000
    C155    C    0.69096   0.36880   0.95193   1.000
    C156    C    0.13240   0.34361   0.95427   1.000
    C157    C    0.63249   0.36787   0.95321   1.000
    C158    C    0.22382   0.36279   0.01991   1.000
    C159    C    0.72408   0.37048   0.02119   1.000
    C160    C    0.19479   0.38317   0.08606   1.000
    C161    C    0.69557   0.37161   0.08941   1.000
    C162    C    0.12745   0.60651   0.91929   1.000
    C163    C    0.62779   0.62623   0.91901   1.000
    C164    C    0.19301   0.64310   0.04896   1.000
    C165    C    0.69365   0.63069   0.05287   1.000
    C166    C    0.13462   0.63838   0.04918   1.000
    C167    C    0.63509   0.62736   0.05168   1.000
    C168    C    0.22001   0.62895   0.98026   1.000
    C169    C    0.72059   0.63148   0.98348   1.000
    C170    C    0.18561   0.61017   0.91432   1.000
    C171    C    0.68611   0.62897   0.91538   1.000
    C172    C    0.37247   0.10738   0.57890   1.000
    C173    C    0.87261   0.10412   0.57810   1.000
    C174    C    0.30648   0.16814   0.45356   1.000
    C175    C    0.80673   0.16377   0.45240   1.000
    C176    C    0.36518   0.16462   0.45474   1.000
    C177    C    0.86543   0.16023   0.45369   1.000
    C178    C    0.27932   0.13977   0.51845   1.000
    C179    C    0.77948   0.13582   0.51734   1.000
    C180    C    0.31402   0.10951   0.58238   1.000
    C181    C    0.81414   0.10594   0.58145   1.000
    C182    C    0.37013   0.91920   0.43785   1.000
    C183    C    0.86997   0.91649   0.43498   1.000
    C184    C    0.31880   0.80040   0.53108   1.000
    C185    C    0.81853   0.79878   0.52901   1.000
    C186    C    0.37732   0.80352   0.53047   1.000
    C187    C    0.87705   0.80234   0.52890   1.000
    C188    C    0.28421   0.86035   0.48327   1.000
    C189    C    0.78398   0.85796   0.48048   1.000
    C190    C    0.31146   0.92054   0.43558   1.000
    C191    C    0.81129   0.91751   0.43232   1.000
    C192    C    0.99681   0.43016   0.86166   1.000
    C193    C    0.49831   0.42991   0.86163   1.000
    C194    C    0.99239   0.44848   0.77705   1.000
    C195    C    0.49435   0.44868   0.77713   1.000
    C196    C    0.98991   0.38537   0.64843   1.000
    C197    C    0.49259   0.38598   0.64843   1.000
    C198    C    0.98317   0.55361   0.66677   1.000
    C199    C    0.48371   0.55403   0.66708   1.000
    C200    C    0.99253   0.30212   0.59702   1.000
    C201    C    0.49516   0.30278   0.59699   1.000
    C202    C    0.98735   0.53914   0.74696   1.000
    C203    C    0.48794   0.53934   0.74723   1.000
    C204    C    0.98454   0.47537   0.61830   1.000
    C205    C    0.48580   0.47596   0.61845   1.000
    C206    C    0.99349   0.37193   0.72781   1.000
    C207    C    0.49694   0.37237   0.72778   1.000
    C208    C    0.00681   0.56640   0.13990   1.000
    C209    C    0.50614   0.56686   0.13913   1.000
    C210    C    0.01024   0.54826   0.22450   1.000
    C211    C    0.50943   0.54870   0.22378   1.000
    C212    C    0.01176   0.61118   0.35310   1.000
    C213    C    0.51077   0.61170   0.35245   1.000
    C214    C    0.00000   0.44292   0.33466   1.000
    C215    C    0.51721   0.44344   0.33399   1.000
    C216    C    0.00880   0.69422   0.40467   1.000
    C217    C    0.50766   0.69463   0.40422   1.000
    C218    C    0.00000   0.45752   0.25450   1.000
    C219    C    0.51356   0.45799   0.25383   1.000
    C220    C    0.01623   0.52112   0.38316   1.000
    C221    C    0.51555   0.52164   0.38248   1.000
    C222    C    0.00930   0.62480   0.27375   1.000
    C223    C    0.50833   0.62527   0.27307   1.000
    C224    C    0.99372   0.06762   0.36129   1.000
    C225    C    0.49387   0.06966   0.36149   1.000
    C226    C    0.99246   0.04944   0.27681   1.000
    C227    C    0.49305   0.05064   0.27724   1.000
    C228    C    0.99438   0.11180   0.14807   1.000
    C229    C    0.49609   0.11165   0.14831   1.000
    C230    C    0.98315   0.94541   0.16680   1.000
    C231    C    0.48259   0.94600   0.16783   1.000
    C232    C    0.99943   0.19379   0.09614   1.000
    C233    C    0.50163   0.19303   0.09597   1.000
    C234    C    0.98622   0.95972   0.24694   1.000
    C235    C    0.48579   0.96096   0.24788   1.000
    C236    C    0.98703   0.02292   0.11818   1.000
    C237    C    0.48776   0.02282   0.11891   1.000
    C238    C    0.99682   0.12513   0.22741   1.000
    C239    C    0.49850   0.12569   0.22753   1.000
    C240    C    0.00814   0.92874   0.63900   1.000
    C241    C    0.50431   0.92928   0.63838   1.000
    C242    C    0.01073   0.94669   0.72350   1.000
    C243    C    0.49873   0.94758   0.72197   1.000
    C244    C    0.01118   0.88382   0.85232   1.000
    C245    C    0.49399   0.88465   0.84996   1.000
    C246    C    0.01996   0.05080   0.83352   1.000
    C247    C    0.48263   0.05249   0.82903   1.000
    C248    C    0.00753   0.80153   0.90427   1.000
    C249    C    0.49645   0.80199   0.90240   1.000
    C250    C    0.01606   0.03660   0.75332   1.000
    C251    C    0.48997   0.03798   0.75020   1.000
    C252    C    0.01721   0.97298   0.88200   1.000
    C253    C    0.48444   0.97431   0.87799   1.000
    C254    C    0.00840   0.87050   0.77290   1.000
    C255    C    0.50119   0.87122   0.77100   1.000
    C256    C    0.40051   0.63535   0.97830   1.000
    C257    C    0.90110   0.63676   0.98279   1.000
    C258    C    0.40457   0.36634   0.01762   1.000
    C259    C    0.90450   0.37306   0.01792   1.000
    C260    C    0.10326   0.86713   0.48559   1.000
    C261    C    0.60309   0.86681   0.48349   1.000
    C262    C    0.09843   0.13630   0.51688   1.000
    C263    C    0.59845   0.13397   0.51500   1.000
    C264    C    0.10513   0.36418   0.01795   1.000
    C265    C    0.60561   0.36884   0.01895   1.000
    C266    C    0.10216   0.62006   0.98559   1.000
    C267    C    0.60247   0.62501   0.98600   1.000
    C268    C    0.39784   0.13397   0.51604   1.000
    C269    C    0.89805   0.13023   0.51520   1.000
    C270    C    0.40279   0.86241   0.48487   1.000
    C271    C    0.90255   0.86076   0.48294   1.000
    C272    C    0.97577   0.64196   0.63460   1.000
    C273    C    0.47543   0.64242   0.63508   1.000
    C274    C    0.02446   0.35453   0.36681   1.000
    C275    C    0.52446   0.35509   0.36620   1.000
    C276    C    0.97413   0.85850   0.13502   1.000
    C277    C    0.47203   0.85941   0.13661   1.000
    C278    C    0.02865   0.13747   0.86516   1.000
    C279    C    0.47154   0.14031   0.85873   1.000
    C280    C    0.99496   0.49662   0.90980   1.000
    C281    C    0.49616   0.49613   0.91003   1.000
    C282    C    0.00213   0.34510   0.88394   1.000
    C283    C    0.50366   0.34482   0.88372   1.000
    C284    C    0.99498   0.22160   0.62906   1.000
    C285    C    0.49851   0.22228   0.62910   1.000
    C286    C    0.99243   0.31255   0.52461   1.000
    C287    C    0.49373   0.31311   0.52449   1.000
    C288    C    0.00536   0.49954   0.09210   1.000
    C289    C    0.50354   0.50030   0.09099   1.000
    C290    C    0.00545   0.65136   0.11732   1.000
    C291    C    0.50618   0.65176   0.11672   1.000
    C292    C    0.00741   0.77487   0.37290   1.000
    C293    C    0.50619   0.77540   0.37260   1.000
    C294    C    0.00752   0.68354   0.47684   1.000
    C295    C    0.50645   0.68372   0.47639   1.000
    C296    C    0.99259   0.00105   0.40960   1.000
    C297    C    0.49375   0.00343   0.41034   1.000
    C298    C    0.99487   0.15241   0.38339   1.000
    C299    C    0.49382   0.15468   0.38310   1.000
    C300    C    0.00778   0.27298   0.12791   1.000
    C301    C    0.51364   0.27125   0.12717   1.000
    C302    C    0.99484   0.18399   0.02370   1.000
    C303    C    0.49376   0.18392   0.02380   1.000
    C304    C    0.00752   0.99546   0.59047   1.000
    C305    C    0.50136   0.99587   0.58963   1.000
    C306    C    0.00751   0.84392   0.61684   1.000
    C307    C    0.51109   0.84456   0.61707   1.000
    C308    C    0.00488   0.72094   0.87283   1.000
    C309    C    0.50610   0.72162   0.87272   1.000
    C310    C    0.00727   0.81237   0.97649   1.000
    C311    C    0.48892   0.81232   0.97345   1.000
    O312    O    0.45492   0.36297   0.01691   1.000
    O313    O    0.55544   0.36422   0.01757   1.000
    O314    O    0.50440   0.42995   0.05359   1.000
    O315    O    0.50946   0.31542   0.07168   1.000
    O316    O    0.50446   0.35221   0.94996   1.000
    O317    O    0.95477   0.36657   0.01727   1.000
    O318    O    0.05509   0.36213   0.01728   1.000
    O319    O    0.00520   0.42980   0.05436   1.000
    O320    O    0.00641   0.31652   0.07226   1.000
    O321    O    0.00358   0.35258   0.95028   1.000
    O322    O    0.39049   0.39225   0.04289   1.000
    O323    O    0.38970   0.33886   0.99343   1.000
    O324    O    0.89089   0.39555   0.04558   1.000
    O325    O    0.88923   0.34938   0.99138   1.000
    O326    O    0.12060   0.37374   0.05034   1.000
    O327    O    0.11877   0.35389   0.98611   1.000
    O328    O    0.62122   0.36969   0.05237   1.000
    O329    O    0.61905   0.36835   0.98608   1.000
    O330    O    0.25503   0.36280   0.02009   1.000
    O331    O    0.20930   0.37298   0.05298   1.000
    O332    O    0.20739   0.35274   0.98640   1.000
    O333    O    0.30210   0.39063   0.04573   1.000
    O334    O    0.30127   0.33528   0.99457   1.000
    O335    O    0.75524   0.37053   0.02120   1.000
    O336    O    0.70982   0.37105   0.05530   1.000
    O337    O    0.70752   0.36964   0.98656   1.000
    O338    O    0.80262   0.39452   0.04905   1.000
    O339    O    0.80092   0.34676   0.99282   1.000
    O340    O    0.99714   0.18889   0.05992   1.000
    O341    O    0.49770   0.18847   0.05988   1.000
    O342    O    0.34261   0.68906   0.02826   1.000
    O343    O    0.38453   0.71035   0.04691   1.000
    O344    O    0.38620   0.66203   0.00291   1.000
    O345    O    0.30282   0.71217   0.04917   1.000
    O346    O    0.29770   0.66129   0.00352   1.000
    O347    O    0.84359   0.68422   0.03701   1.000
    O348    O    0.88570   0.70337   0.05706   1.000
    O349    O    0.88699   0.66040   0.00945   1.000
    O350    O    0.80389   0.70465   0.05976   1.000
    O351    O    0.79854   0.65952   0.01021   1.000
    O352    O    0.16382   0.64074   0.04907   1.000
    O353    O    0.20514   0.64989   0.07570   1.000
    O354    O    0.20651   0.63602   0.01461   1.000
    O355    O    0.12341   0.64411   0.07526   1.000
    O356    O    0.11839   0.62922   0.01738   1.000
    O357    O    0.66437   0.62903   0.05227   1.000
    O358    O    0.62392   0.62732   0.07809   1.000
    O359    O    0.61878   0.62619   0.01884   1.000
    O360    O    0.70586   0.63106   0.08029   1.000
    O361    O    0.70712   0.63108   0.01818   1.000
    O362    O    0.98572   0.01830   0.08718   1.000
    O363    O    0.48671   0.01790   0.08797   1.000
    O364    O    0.34718   0.41831   0.06968   1.000
    O365    O    0.38938   0.43965   0.08723   1.000
    O366    O    0.30768   0.44121   0.09152   1.000
    O367    O    0.84805   0.41825   0.07507   1.000
    O368    O    0.89060   0.43652   0.09412   1.000
    O369    O    0.80880   0.43811   0.09939   1.000
    O370    O    0.97999   0.85442   0.10737   1.000
    O371    O    0.47666   0.85518   0.10847   1.000
    O372    O    0.16543   0.38323   0.08439   1.000
    O373    O    0.12418   0.39108   0.10790   1.000
    O374    O    0.66620   0.37108   0.08760   1.000
    O375    O    0.62505   0.37033   0.11171   1.000
    O376    O    0.20621   0.39036   0.11325   1.000
    O377    O    0.70724   0.37146   0.11725   1.000
    O378    O    0.50484   0.53358   0.11506   1.000
    O379    O    0.00609   0.53297   0.11600   1.000
    O380    O    0.50764   0.23214   0.11157   1.000
    O381    O    0.49886   0.15234   0.12214   1.000
    O382    O    0.00360   0.23338   0.11202   1.000
    O383    O    0.99690   0.15279   0.12210   1.000
    O384    O    0.50616   0.60931   0.12792   1.000
    O385    O    0.50366   0.64398   0.05058   1.000
    O386    O    0.00613   0.60888   0.12861   1.000
    O387    O    0.00352   0.64399   0.05120   1.000
    O388    O    0.99070   0.06736   0.13312   1.000
    O389    O    0.98509   0.98417   0.14249   1.000
    O390    O    0.49193   0.06723   0.13361   1.000
    O391    O    0.48517   0.98441   0.14337   1.000
    O392    O    0.97864   0.90196   0.15091   1.000
    O393    O    0.98066   0.83032   0.15143   1.000
    O394    O    0.47731   0.90271   0.15222   1.000
    O395    O    0.47862   0.83101   0.15271   1.000
    O396    O    0.50779   0.55778   0.18146   1.000
    O397    O    0.00853   0.55733   0.18220   1.000
    O398    O    0.99560   0.11847   0.18774   1.000
    O399    O    0.49730   0.11867   0.18792   1.000
    O400    O    0.98468   0.95257   0.20687   1.000
    O401    O    0.48419   0.95348   0.20785   1.000
    O402    O    0.51367   0.42832   0.23441   1.000
    O403    O    0.00708   0.42785   0.23507   1.000
    O404    O    0.51150   0.50335   0.23880   1.000
    O405    O    0.50888   0.58698   0.24842   1.000
    O406    O    0.00512   0.50289   0.23950   1.000
    O407    O    0.00977   0.58653   0.24913   1.000
    O408    O    0.99943   0.15980   0.23876   1.000
    O409    O    0.99464   0.08729   0.25211   1.000
    O410    O    0.50146   0.16035   0.23872   1.000
    O411    O    0.49578   0.08817   0.25238   1.000
    O412    O    0.98934   0.00458   0.26188   1.000
    O413    O    0.98506   0.93029   0.26642   1.000
    O414    O    0.48942   0.00580   0.26256   1.000
    O415    O    0.48415   0.93179   0.26749   1.000
    O416    O    0.50686   0.66036   0.26165   1.000
    O417    O    0.00788   0.65990   0.26234   1.000
    O418    O    0.51539   0.45071   0.29391   1.000
    O419    O    0.00000   0.45022   0.29458   1.000
    O420    O    0.50955   0.61848   0.31276   1.000
    O421    O    0.01053   0.61799   0.31343   1.000
    O422    O    0.99309   0.05853   0.31905   1.000
    O423    O    0.49346   0.06015   0.31936   1.000
    O424    O    0.51739   0.32803   0.35000   1.000
    O425    O    0.01761   0.32750   0.35039   1.000
    O426    O    0.52084   0.39927   0.35009   1.000
    O427    O    0.51638   0.48254   0.35823   1.000
    O428    O    0.01223   0.39872   0.35073   1.000
    O429    O    0.00812   0.48202   0.35891   1.000
    O430    O    0.51316   0.56667   0.36746   1.000
    O431    O    0.50921   0.65317   0.37834   1.000
    O432    O    0.01399   0.56615   0.36813   1.000
    O433    O    0.01028   0.65270   0.37888   1.000
    O434    O    0.99429   0.11002   0.37234   1.000
    O435    O    0.99315   0.03434   0.38544   1.000
    O436    O    0.49384   0.11217   0.37229   1.000
    O437    O    0.49381   0.03655   0.38592   1.000
    O438    O    0.69602   0.89941   0.39017   1.000
    O439    O    0.51846   0.35237   0.39385   1.000
    O440    O    0.19631   0.90096   0.39278   1.000
    O441    O    0.01821   0.35174   0.39434   1.000
    O442    O    0.61446   0.90367   0.39594   1.000
    O443    O    0.50692   0.73501   0.38841   1.000
    O444    O    0.50456   0.81834   0.42832   1.000
    O445    O    0.00811   0.73455   0.38878   1.000
    O446    O    0.00514   0.81774   0.42865   1.000
    O447    O    0.11473   0.90391   0.39804   1.000
    O448    O    0.51674   0.51684   0.41349   1.000
    O449    O    0.49593   0.14597   0.44960   1.000
    O450    O    0.01741   0.51633   0.41417   1.000
    O451    O    0.99660   0.14445   0.44983   1.000
    O452    O    0.79928   0.94188   0.41316   1.000
    O453    O    0.29942   0.94523   0.41674   1.000
    O454    O    0.88131   0.93920   0.41681   1.000
    O455    O    0.79464   0.17520   0.42630   1.000
    O456    O    0.29437   0.17973   0.42756   1.000
    O457    O    0.38143   0.94217   0.41984   1.000
    O458    O    0.87672   0.17068   0.42894   1.000
    O459    O    0.50705   0.68917   0.44031   1.000
    O460    O    0.00816   0.68888   0.44075   1.000
    O461    O    0.37644   0.17525   0.43004   1.000
    O462    O    0.99773   0.93083   0.44700   1.000
    O463    O    0.49834   0.93236   0.44719   1.000
    O464    O    0.65772   0.89074   0.41851   1.000
    O465    O    0.70427   0.87417   0.44872   1.000
    O466    O    0.15798   0.89179   0.42091   1.000
    O467    O    0.20451   0.87599   0.45141   1.000
    O468    O    0.61579   0.87949   0.45190   1.000
    O469    O    0.11600   0.87995   0.45406   1.000
    O470    O    0.69142   0.22061   0.45043   1.000
    O471    O    0.61004   0.21484   0.45089   1.000
    O472    O    0.84063   0.91700   0.43365   1.000
    O473    O    0.79764   0.88774   0.45640   1.000
    O474    O    0.19102   0.22366   0.45129   1.000
    O475    O    0.10970   0.21700   0.45166   1.000
    O476    O    0.88626   0.88863   0.45896   1.000
    O477    O    0.34080   0.91987   0.43671   1.000
    O478    O    0.29784   0.89044   0.45943   1.000
    O479    O    0.38646   0.89080   0.46136   1.000
    O480    O    0.83608   0.16200   0.45304   1.000
    O481    O    0.79310   0.14979   0.48487   1.000
    O482    O    0.33583   0.16638   0.45415   1.000
    O483    O    0.29290   0.15396   0.48600   1.000
    O484    O    0.88174   0.14523   0.48444   1.000
    O485    O    0.38151   0.14930   0.48539   1.000
    O486    O    0.65314   0.19389   0.46936   1.000
    O487    O    0.69973   0.16603   0.49336   1.000
    O488    O    0.61117   0.16308   0.49229   1.000
    O489    O    0.15286   0.19663   0.47024   1.000
    O490    O    0.19952   0.16935   0.49442   1.000
    O491    O    0.11103   0.16545   0.49364   1.000
    O492    O    0.75278   0.85850   0.48061   1.000
    O493    O    0.80126   0.82837   0.50474   1.000
    O494    O    0.70797   0.84526   0.51326   1.000
    O495    O    0.95270   0.86068   0.48368   1.000
    O496    O    0.88980   0.83155   0.50592   1.000
    O497    O    0.25301   0.86076   0.48339   1.000
    O498    O    0.30151   0.83038   0.50717   1.000
    O499    O    0.55301   0.86404   0.48376   1.000
    O500    O    0.61938   0.85146   0.51417   1.000
    O501    O    0.20818   0.84738   0.51601   1.000
    O502    O    0.45286   0.86185   0.48445   1.000
    O503    O    0.50701   0.85292   0.55056   1.000
    O504    O    0.05306   0.86386   0.48500   1.000
    O505    O    0.00519   0.85226   0.55063   1.000
    O506    O    0.39006   0.83296   0.50767   1.000
    O507    O    0.11955   0.85224   0.51641   1.000
    O508    O    0.54825   0.13562   0.51555   1.000
    O509    O    0.61480   0.10608   0.53928   1.000
    O510    O    0.94819   0.13336   0.51574   1.000
    O511    O    0.88533   0.11718   0.54665   1.000
    O512    O    0.44794   0.13562   0.51607   1.000
    O513    O    0.38515   0.12068   0.54747   1.000
    O514    O    0.49589   0.22518   0.52030   1.000
    O515    O    0.49970   0.06656   0.55287   1.000
    O516    O    0.49828   0.17977   0.57260   1.000
    O517    O    0.04838   0.13640   0.51657   1.000
    O518    O    0.99538   0.22452   0.52044   1.000
    O519    O    0.00293   0.06598   0.55337   1.000
    O520    O    0.99666   0.17905   0.57266   1.000
    O521    O    0.11485   0.10870   0.54091   1.000
    O522    O    0.74827   0.13615   0.51746   1.000
    O523    O    0.79681   0.12088   0.54939   1.000
    O524    O    0.70344   0.10672   0.54174   1.000
    O525    O    0.24812   0.13991   0.51860   1.000
    O526    O    0.29667   0.12464   0.55041   1.000
    O527    O    0.20343   0.11028   0.54300   1.000
    O528    O    0.49444   0.30794   0.56074   1.000
    O529    O    0.99248   0.30734   0.56081   1.000
    O530    O    0.84779   0.80056   0.52895   1.000
    O531    O    0.89085   0.77970   0.54762   1.000
    O532    O    0.80948   0.77374   0.54766   1.000
    O533    O    0.34806   0.80196   0.53077   1.000
    O534    O    0.39112   0.78042   0.54880   1.000
    O535    O    0.30976   0.77517   0.54956   1.000
    O536    O    0.66501   0.83380   0.54532   1.000
    O537    O    0.62431   0.82601   0.56962   1.000
    O538    O    0.70646   0.81986   0.57179   1.000
    O539    O    0.16520   0.83547   0.54787   1.000
    O540    O    0.12453   0.82707   0.57200   1.000
    O541    O    0.20664   0.82226   0.57462   1.000
    O542    O    0.98297   0.48013   0.58728   1.000
    O543    O    0.48393   0.48080   0.58742   1.000
    O544    O    0.66048   0.07759   0.56473   1.000
    O545    O    0.61991   0.05554   0.58188   1.000
    O546    O    0.16061   0.08080   0.56609   1.000
    O547    O    0.12008   0.05844   0.58331   1.000
    O548    O    0.70187   0.05259   0.58500   1.000
    O549    O    0.20206   0.05634   0.58648   1.000
    O550    O    0.84337   0.10503   0.57977   1.000
    O551    O    0.88665   0.09281   0.60256   1.000
    O552    O    0.34324   0.10845   0.58064   1.000
    O553    O    0.38648   0.09557   0.60318   1.000
    O554    O    0.98198   0.64482   0.60706   1.000
    O555    O    0.48165   0.64551   0.60756   1.000
    O556    O    0.80507   0.09562   0.60792   1.000
    O557    O    0.30501   0.09905   0.60886   1.000
    O558    O    0.50283   0.96257   0.61400   1.000
    O559    O    0.00783   0.96210   0.61474   1.000
    O560    O    0.49684   0.26253   0.61304   1.000
    O561    O    0.49387   0.34438   0.62271   1.000
    O562    O    0.99375   0.26186   0.61304   1.000
    O563    O    0.99122   0.34374   0.62272   1.000
    O564    O    0.00783   0.88633   0.62792   1.000
    O565    O    0.50770   0.88692   0.62772   1.000
    O566    O    0.98722   0.43037   0.63336   1.000
    O567    O    0.98385   0.51449   0.64253   1.000
    O568    O    0.48920   0.43097   0.63344   1.000
    O569    O    0.48475   0.51500   0.64277   1.000
    O570    O    0.97947   0.59779   0.65069   1.000
    O571    O    0.98261   0.66902   0.65099   1.000
    O572    O    0.47957   0.59823   0.65108   1.000
    O573    O    0.48207   0.66953   0.65157   1.000
    O574    O    0.50152   0.93843   0.68017   1.000
    O575    O    0.00944   0.93772   0.68125   1.000
    O576    O    0.49476   0.37918   0.68810   1.000
    O577    O    0.99170   0.37865   0.68812   1.000
    O578    O    0.98526   0.54638   0.70686   1.000
    O579    O    0.48582   0.54669   0.70715   1.000
    O580    O    0.48972   0.06768   0.73070   1.000
    O581    O    0.01660   0.06616   0.73384   1.000
    O582    O    0.49435   0.99278   0.73608   1.000
    O583    O    0.49996   0.90940   0.74648   1.000
    O584    O    0.01339   0.99164   0.73841   1.000
    O585    O    0.00957   0.90859   0.74820   1.000
    O586    O    0.49971   0.33734   0.73917   1.000
    O587    O    0.49564   0.41053   0.75245   1.000
    O588    O    0.99533   0.33684   0.73921   1.000
    O589    O    0.99294   0.41020   0.75243   1.000
    O590    O    0.98987   0.49381   0.76200   1.000
    O591    O    0.98723   0.56885   0.76634   1.000
    O592    O    0.49114   0.49401   0.76218   1.000
    O593    O    0.48727   0.56895   0.76668   1.000
    O594    O    0.48630   0.04524   0.78961   1.000
    O595    O    0.00638   0.83569   0.76162   1.000
    O596    O    0.50494   0.83631   0.76077   1.000
    O597    O    0.01801   0.04370   0.79342   1.000
    O598    O    0.49759   0.87794   0.81048   1.000
    O599    O    0.00979   0.87716   0.81261   1.000
    O600    O    0.99460   0.43932   0.81935   1.000
    O601    O    0.49633   0.43930   0.81938   1.000
    O602    O    0.47708   0.09640   0.84388   1.000
    O603    O    0.48353   0.01340   0.85351   1.000
    O604    O    0.47825   0.16789   0.84392   1.000
    O605    O    0.02298   0.16599   0.84875   1.000
    O606    O    0.02430   0.09414   0.84934   1.000
    O607    O    0.01858   0.01189   0.85776   1.000
    O608    O    0.48921   0.92948   0.86398   1.000
    O609    O    0.49522   0.84332   0.87618   1.000
    O610    O    0.01419   0.92840   0.86716   1.000
    O611    O    0.00935   0.84268   0.87829   1.000
    O612    O    0.47620   0.14367   0.88764   1.000
    O613    O    0.19465   0.60526   0.88658   1.000
    O614    O    0.69525   0.63017   0.88752   1.000
    O615    O    0.50098   0.38737   0.87267   1.000
    O616    O    0.49723   0.46302   0.88583   1.000
    O617    O    0.99947   0.38763   0.87280   1.000
    O618    O    0.99589   0.46339   0.88573   1.000
    O619    O    0.02352   0.14188   0.89307   1.000
    O620    O    0.61366   0.62635   0.89319   1.000
    O621    O    0.11343   0.59999   0.89414   1.000
    O622    O    0.50127   0.76180   0.88756   1.000
    O623    O    0.50361   0.67891   0.92858   1.000
    O624    O    0.00620   0.76124   0.88855   1.000
    O625    O    0.00323   0.67878   0.92895   1.000
    O626    O    0.48152   0.97896   0.90845   1.000
    O627    O    0.01861   0.97758   0.91300   1.000
    O628    O    0.80169   0.56668   0.90453   1.000
    O629    O    0.30167   0.55682   0.90559   1.000
    O630    O    0.88367   0.57119   0.90786   1.000
    O631    O    0.38351   0.56202   0.90852   1.000
    O632    O    0.70070   0.36909   0.92446   1.000
    O633    O    0.20075   0.33508   0.92605   1.000
    O634    O    0.61901   0.36671   0.92685   1.000
    O635    O    0.49268   0.80716   0.93793   1.000
    O636    O    0.11901   0.33562   0.92884   1.000
    O637    O    0.00740   0.80695   0.94038   1.000
    O638    O    0.99828   0.56662   0.94744   1.000
    O639    O    0.49864   0.56617   0.94724   1.000
    O640    O    0.15653   0.60834   0.91680   1.000
    O641    O    0.20281   0.61956   0.94729   1.000
    O642    O    0.65695   0.62760   0.91719   1.000
    O643    O    0.70335   0.63023   0.94943   1.000
    O644    O    0.61513   0.62562   0.95250   1.000
    O645    O    0.11481   0.61328   0.95244   1.000
    O646    O    0.80412   0.30255   0.94271   1.000
    O647    O    0.88597   0.30735   0.94342   1.000
    O648    O    0.34169   0.58137   0.92684   1.000
    O649    O    0.29725   0.60653   0.95193   1.000
    O650    O    0.84195   0.58847   0.92759   1.000
    O651    O    0.79771   0.61090   0.95449   1.000
    O652    O    0.38574   0.60910   0.95307   1.000
    O653    O    0.88618   0.61327   0.95574   1.000
    O654    O    0.30549   0.28417   0.94917   1.000
    O655    O    0.38698   0.29010   0.94972   1.000
    O656    O    0.66172   0.36833   0.95257   1.000
    O657    O    0.16168   0.34315   0.95358   1.000
    O658    O    0.84469   0.32432   0.96464   1.000
    O659    O    0.34556   0.30956   0.96906   1.000
    O660    O    0.49502   0.72426   0.97895   1.000
    O661    O    0.00443   0.72449   0.98078   1.000
    O662    O    0.25105   0.63106   0.97915   1.000
    O663    O    0.45082   0.63578   0.98137   1.000
    O664    O    0.75168   0.63306   0.98298   1.000
    O665    O    0.95135   0.63669   0.98393   1.000
    O666    O    0.55180   0.63060   0.98523   1.000
    O667    O    0.05187   0.62834   0.98533   1.000
loop_
    _geom_bond_atom_site_label_1
    _geom_bond_atom_site_label_2
    _geom_bond_distance
    _geom_bond_site_symmetry_2
    _ccdc_geom_bond_type
    C3     O312      1.19381      .   S
    C258   O312      1.19381      .   S
    C3     O313      1.19328      .   S
    C265   O313      1.19328      .   S
    C3     O314      1.20600      .   S
    C289   O314      1.20600      .   S
    C3     O315      1.15530      .   S
    C301   O315      1.15530      .   S
    C3     O316      1.16081  1_554   S
    C283   O316      1.16081      .   S
    C2     O317      1.19269  1_455   S
    C259   O317      1.19269      .   S
    C2     O318      1.18788      .   S
    C264   O318      1.18788      .   S
    C2     O319      1.20177      .   S
    C288   O319      1.20177      .   S
    C2     O320      1.15375      .   S
    C300   O320      1.15375      .   S
    C2     O321      1.16217  1_554   S
    C282   O321      1.16217      .   S
    C258   O322      0.67303      .   S
    C122   O322      0.67303      .   S
    C258   O323      0.67368  1_554   S
    C126   O323      0.67368      .   S
    C259   O324      0.67279      .   S
    C123   O324      0.67279      .   S
    C259   O325      0.67297  1_554   S
    C127   O325      0.67297      .   S
    C264   O326      0.67310      .   S
    C152   O326      0.67310      .   S
    C264   O327      0.67326  1_554   S
    C156   O327      0.67326      .   S
    C265   O328      0.67271      .   S
    C153   O328      0.67271      .   S
    C265   O329      0.67286  1_554   S
    C157   O329      0.67286      .   S
    C158   O330      0.73995      .   S
    C128   O330      0.73995      .   S
    C158   O331      0.70237      .   S
    C160   O331      0.70237      .   S
    C158   O332      0.70213  1_554   S
    C154   O332      0.70213      .   S
    C128   O333      0.70204      .   S
    C130   O333      0.70204      .   S
    C128   O334      0.70234  1_554   S
    C124   O334      0.70234      .   S
    C159   O335      0.73903      .   S
    C129   O335      0.73903      .   S
    C159   O336      0.70208      .   S
    C161   O336      0.70208      .   S
    C159   O337      0.70152  1_554   S
    C155   O337      0.70152      .   S
    C129   O338      0.70168      .   S
    C131   O338      0.70168      .   S
    C129   O339      0.70210  1_554   S
    C125   O339      0.70210      .   S
    C302   O340      0.63584      .   S
    C232   O340      0.63584      .   S
    C303   O341      0.63535      .   S
    C233   O341      0.63535      .   S
    C116   O342      0.69529      .   S
    C114   O342      0.69529      .   S
    C116   O343      0.54550      .   S
    C12    O343      0.54550      .   S
    C116   O344      0.67403      .   S
    C256   O344      0.67403  1_556   S
    C114   O345      0.54523      .   S
    C10    O345      0.54523      .   S
    C114   O346      0.70171      .   S
    C118   O346      0.70171  1_556   S
    C117   O347      0.69562      .   S
    C115   O347      0.69562      .   S
    C117   O348      0.54596      .   S
    C13    O348      0.54596      .   S
    C117   O349      0.67373      .   S
    C257   O349      0.67373  1_556   S
    C115   O350      0.54480      .   S
    C11    O350      0.54480      .   S
    C115   O351      0.70189      .   S
    C119   O351      0.70189  1_556   S
    C164   O352      0.69485      .   S
    C166   O352      0.69485      .   S
    C164   O353      0.54469      .   S
    C50    O353      0.54469      .   S
    C164   O354      0.70214      .   S
    C168   O354      0.70214  1_556   S
    C166   O355      0.54559      .   S
    C52    O355      0.54559      .   S
    C166   O356      0.67286      .   S
    C266   O356      0.67286  1_556   S
    C167   O357      0.69519      .   S
    C165   O357      0.69519      .   S
    C167   O358      0.54537      .   S
    C53    O358      0.54537      .   S
    C167   O359      0.67295      .   S
    C267   O359      0.67295  1_556   S
    C165   O360      0.54482      .   S
    C51    O360      0.54482      .   S
    C165   O361      0.70172      .   S
    C169   O361      0.70172  1_556   S
    C94    O362      0.54469      .   S
    C236   O362      0.54469      .   S
    C95    O363      0.54431      .   S
    C237   O363      0.54431      .   S
    C122   O364      0.69516      .   S
    C130   O364      0.69516      .   S
    C122   O365      0.54523      .   S
    C16    O365      0.54523      .   S
    C130   O366      0.54462      .   S
    C22    O366      0.54462      .   S
    C123   O367      0.69550      .   S
    C131   O367      0.69550      .   S
    C123   O368      0.54513      .   S
    C17    O368      0.54513      .   S
    C131   O369      0.54478      .   S
    C23    O369      0.54478      .   S
    C98    O370      0.51315      .   S
    C276   O370      0.51315      .   S
    C99    O371      0.51287      .   S
    C277   O371      0.51287      .   S
    C152   O372      0.69515      .   S
    C160   O372      0.69515      .   S
    C152   O373      0.54552      .   S
    C40    O373      0.54552      .   S
    C153   O374      0.69568      .   S
    C161   O374      0.69568      .   S
    C153   O375      0.54599      .   S
    C41    O375      0.54599      .   S
    C160   O376      0.54464      .   S
    C46    O376      0.54464      .   S
    C161   O377      0.54478      .   S
    C47    O377      0.54478      .   S
    C289   O378      0.63834      .   S
    C209   O378      0.63834      .   S
    C288   O379      0.63759      .   S
    C208   O379      0.63759      .   S
    C233   O380      0.64347      .   S
    C301   O380      0.64347      .   S
    C233   O381      0.74995      .   S
    C229   O381      0.74995      .   S
    C232   O382      0.64318  1_655   S
    C300   O382      0.64318      .   S
    C232   O383      0.75034      .   S
    C228   O383      0.75034      .   S
    C291   O384      0.64153      .   S
    C209   O384      0.64153      .   S
    C291   O385      1.15865      .   S
    C1     O385      1.15865  1_556   S
    C290   O386      0.64164      .   S
    C208   O386      0.64164      .   S
    C290   O387      1.15796      .   S
    C0     O387      1.15796  1_556   S
    C236   O388      0.69822      .   S
    C228   O388      0.69822      .   S
    C236   O389      0.70530  1_545   S
    C230   O389      0.70530      .   S
    C237   O390      0.69812      .   S
    C229   O390      0.69812      .   S
    C237   O391      0.70519  1_545   S
    C231   O391      0.70519      .   S
    C276   O392      0.69456      .   S
    C230   O392      0.69456      .   S
    C276   O393      0.50977      .   S
    C100   O393      0.50977      .   S
    C277   O394      0.69389      .   S
    C231   O394      0.69389      .   S
    C277   O395      0.50961      .   S
    C101   O395      0.50961      .   S
    C209   O396      0.74881      .   S
    C211   O396      0.74881      .   S
    C208   O397      0.74833      .   S
    C210   O397      0.74833      .   S
    C228   O398      0.69852      .   S
    C238   O398      0.69852      .   S
    C229   O399      0.69822      .   S
    C239   O399      0.69822      .   S
    C230   O400      0.70639      .   S
    C234   O400      0.70639      .   S
    C231   O401      0.70632      .   S
    C235   O401      0.70632      .   S
    C83    O402      0.54584      .   S
    C219   O402      0.54584      .   S
    C82    O403      0.57178      .   S
    C218   O403      0.57178      .   S
    C211   O404      0.70213      .   S
    C219   O404      0.70213      .   S
    C211   O405      0.69993      .   S
    C223   O405      0.69993      .   S
    C210   O406      0.72118      .   S
    C218   O406      0.72118      .   S
    C210   O407      0.69951      .   S
    C222   O407      0.69951      .   S
    C238   O408      0.54192      .   S
    C96    O408      0.54192  1_455   S
    C238   O409      0.70005      .   S
    C226   O409      0.70005      .   S
    C239   O410      0.54194      .   S
    C97    O410      0.54194      .   S
    C239   O411      0.70003      .   S
    C227   O411      0.70003      .   S
    C234   O412      0.70198  1_565   S
    C226   O412      0.70198      .   S
    C234   O413      0.54567      .   S
    C92    O413      0.54567      .   S
    C235   O414      0.70176  1_565   S
    C227   O414      0.70176      .   S
    C235   O415      0.54562      .   S
    C93    O415      0.54562      .   S
    C87    O416      0.54196      .   S
    C223   O416      0.54196      .   S
    C86    O417      0.54196      .   S
    C222   O417      0.54196      .   S
    C219   O418      0.70603      .   S
    C215   O418      0.70603      .   S
    C218   O419      0.70758      .   S
    C214   O419      0.70758      .   S
    C223   O420      0.69850      .   S
    C213   O420      0.69850      .   S
    C222   O421      0.69829      .   S
    C212   O421      0.69829      .   S
    C226   O422      0.74868      .   S
    C224   O422      0.74868      .   S
    C227   O423      0.74798      .   S
    C225   O423      0.74798      .   S
    C91    O424      0.51004      .   S
    C275   O424      0.51004      .   S
    C90    O425      0.50997      .   S
    C274   O425      0.50997      .   S
    C215   O426      0.69498      .   S
    C275   O426      0.69498      .   S
    C215   O427      0.70518      .   S
    C221   O427      0.70518      .   S
    C214   O428      0.73635      .   S
    C274   O428      0.73635      .   S
    C214   O429      0.73029      .   S
    C220   O429      0.73029      .   S
    C213   O430      0.69788      .   S
    C221   O430      0.69788      .   S
    C213   O431      0.75029      .   S
    C217   O431      0.75029      .   S
    C212   O432      0.69786      .   S
    C220   O432      0.69786      .   S
    C212   O433      0.74979      .   S
    C216   O433      0.74979      .   S
    C224   O434      0.64087      .   S
    C298   O434      0.64087      .   S
    C224   O435      0.63906      .   S
    C296   O435      0.63906      .   S
    C225   O436      0.64067      .   S
    C299   O436      0.64067      .   S
    C225   O437      0.63943      .   S
    C297   O437      0.63943      .   S
    C31    O438      0.54446      .   S
    C141   O438      0.54446      .   S
    C275   O439      0.51344      .   S
    C89    O439      0.51344      .   S
    C30    O440      0.54454      .   S
    C140   O440      0.54454      .   S
    C274   O441      0.51345      .   S
    C88    O441      0.51345      .   S
    C25    O442      0.54552      .   S
    C133   O442      0.54552      .   S
    C293   O443      0.64248      .   S
    C217   O443      0.64248      .   S
    C293   O444      1.15524      .   S
    C5     O444      1.15524      .   S
    C292   O445      0.64227      .   S
    C216   O445      0.64227      .   S
    C292   O446      1.15620      .   S
    C4     O446      1.15620      .   S
    C24    O447      0.54547      .   S
    C132   O447      0.54547      .   S
    C221   O448      0.54470      .   S
    C85    O448      0.54470      .   S
    C299   O449      1.16576      .   S
    C7     O449      1.16576      .   S
    C220   O450      0.54469      .   S
    C84    O450      0.54469      .   S
    C298   O451      1.16378      .   S
    C6     O451      1.16378      .   S
    C71    O452      0.54420      .   S
    C191   O452      0.54420      .   S
    C70    O453      0.54420      .   S
    C190   O453      0.54420      .   S
    C65    O454      0.54508      .   S
    C183   O454      0.54508      .   S
    C59    O455      0.54515      .   S
    C175   O455      0.54515      .   S
    C58    O456      0.54462      .   S
    C174   O456      0.54462      .   S
    C64    O457      0.54507      .   S
    C182   O457      0.54507      .   S
    C61    O458      0.54589      .   S
    C177   O458      0.54589      .   S
    C217   O459      0.63597      .   S
    C295   O459      0.63597      .   S
    C216   O460      0.63584      .   S
    C294   O460      0.63584      .   S
    C60    O461      0.54578      .   S
    C176   O461      0.54578      .   S
    C296   O462      1.20093  1_545   S
    C4     O462      1.20093  1_455   S
    C297   O463      1.20563  1_545   S
    C5     O463      1.20563      .   S
    C141   O464      0.69520      .   S
    C133   O464      0.69520      .   S
    C141   O465      0.70239      .   S
    C139   O465      0.70239      .   S
    C140   O466      0.69522      .   S
    C132   O466      0.69522      .   S
    C140   O467      0.70231      .   S
    C138   O467      0.70231      .   S
    C133   O468      0.67272      .   S
    C261   O468      0.67272      .   S
    C132   O469      0.67279      .   S
    C260   O469      0.67279      .   S
    C35    O470      0.54457      .   S
    C145   O470      0.54457      .   S
    C37    O471      0.54656      .   S
    C147   O471      0.54656      .   S
    C191   O472      0.69452      .   S
    C183   O472      0.69452      .   S
    C191   O473      0.70201      .   S
    C189   O473      0.70201      .   S
    C34    O474      0.54458      .   S
    C144   O474      0.54458      .   S
    C36    O475      0.54583      .   S
    C146   O475      0.54583      .   S
    C183   O476      0.67288      .   S
    C271   O476      0.67288      .   S
    C190   O477      0.69452      .   S
    C182   O477      0.69452      .   S
    C190   O478      0.70200      .   S
    C188   O478      0.70200      .   S
    C182   O479      0.67304      .   S
    C270   O479      0.67304      .   S
    C175   O480      0.69493      .   S
    C177   O480      0.69493      .   S
    C175   O481      0.70241      .   S
    C179   O481      0.70241      .   S
    C174   O482      0.69488      .   S
    C176   O482      0.69488      .   S
    C174   O483      0.70244      .   S
    C178   O483      0.70244      .   S
    C177   O484      0.67276      .   S
    C269   O484      0.67276      .   S
    C176   O485      0.67302      .   S
    C268   O485      0.67302      .   S
    C145   O486      0.69558      .   S
    C147   O486      0.69558      .   S
    C145   O487      0.70216      .   S
    C149   O487      0.70216      .   S
    C147   O488      0.66949      .   S
    C263   O488      0.66949      .   S
    C144   O489      0.69542      .   S
    C146   O489      0.69542      .   S
    C144   O490      0.70216      .   S
    C148   O490      0.70216      .   S
    C146   O491      0.67421      .   S
    C262   O491      0.67421      .   S
    C189   O492      0.73981      .   S
    C139   O492      0.73981      .   S
    C189   O493      0.70218      .   S
    C185   O493      0.70218      .   S
    C139   O494      0.70236      .   S
    C135   O494      0.70236      .   S
    C271   O495      1.18880      .   S
    C4     O495      1.18880  1_455   S
    C271   O496      0.67379      .   S
    C187   O496      0.67379      .   S
    C188   O497      0.73985      .   S
    C138   O497      0.73985      .   S
    C188   O498      0.70213      .   S
    C184   O498      0.70213      .   S
    C261   O499      1.19040      .   S
    C5     O499      1.19040      .   S
    C261   O500      0.67297      .   S
    C137   O500      0.67297      .   S
    C138   O501      0.70191      .   S
    C134   O501      0.70191      .   S
    C5     O502      1.18756      .   S
    C270   O502      1.18756      .   S
    C5     O503      1.16540      .   S
    C307   O503      1.16540      .   S
    C4     O504      1.19286      .   S
    C260   O504      1.19286      .   S
    C4     O505      1.16010      .   S
    C306   O505      1.16010      .   S
    C270   O506      0.67383      .   S
    C186   O506      0.67383      .   S
    C260   O507      0.67299      .   S
    C136   O507      0.67299      .   S
    C263   O508      1.19052      .   S
    C7     O508      1.19052      .   S
    C263   O509      0.67682      .   S
    C143   O509      0.67682      .   S
    C269   O510      1.19139      .   S
    C6     O510      1.19139      .   S
    C269   O511      0.67245      .   S
    C173   O511      0.67245      .   S
    C268   O512      1.18940      .   S
    C7     O512      1.18940      .   S
    C268   O513      0.67278      .   S
    C172   O513      0.67278      .   S
    C7     O514      1.26719      .   S
    C287   O514      1.26719      .   S
    C7     O515      1.20067      .   S
    C305   O515      1.20067  1_565   S
    C7     O516      1.16151      .   S
    C285   O516      1.16151      .   S
    C6     O517      1.18656  1_655   S
    C262   O517      1.18656      .   S
    C6     O518      1.26890      .   S
    C286   O518      1.26890      .   S
    C6     O519      1.20121  1_655   S
    C304   O519      1.20121  1_565   S
    C6     O520      1.16234      .   S
    C284   O520      1.16234      .   S
    C262   O521      0.67287      .   S
    C142   O521      0.67287      .   S
    C179   O522      0.74009      .   S
    C149   O522      0.74009      .   S
    C179   O523      0.70237      .   S
    C181   O523      0.70237      .   S
    C149   O524      0.70217      .   S
    C151   O524      0.70217      .   S
    C178   O525      0.73980      .   S
    C148   O525      0.73980      .   S
    C178   O526      0.70221      .   S
    C180   O526      0.70221      .   S
    C148   O527      0.70206      .   S
    C150   O527      0.70206      .   S
    C287   O528      0.63639      .   S
    C201   O528      0.63639      .   S
    C286   O529      0.63649      .   S
    C200   O529      0.63649      .   S
    C187   O530      0.69552      .   S
    C185   O530      0.69552      .   S
    C187   O531      0.54615      .   S
    C69    O531      0.54615      .   S
    C185   O532      0.54457      .   S
    C67    O532      0.54457      .   S
    C186   O533      0.69558      .   S
    C184   O533      0.69558      .   S
    C186   O534      0.54609      .   S
    C68    O534      0.54609      .   S
    C184   O535      0.54455      .   S
    C66    O535      0.54455      .   S
    C137   O536      0.69480      .   S
    C135   O536      0.69480      .   S
    C137   O537      0.54583      .   S
    C29    O537      0.54583      .   S
    C135   O538      0.54468      .   S
    C27    O538      0.54468      .   S
    C136   O539      0.69497      .   S
    C134   O539      0.69497      .   S
    C136   O540      0.54579      .   S
    C28    O540      0.54579      .   S
    C134   O541      0.54508      .   S
    C26    O541      0.54508      .   S
    C74    O542      0.54477      .   S
    C204   O542      0.54477      .   S
    C75    O543      0.54507      .   S
    C205   O543      0.54507      .   S
    C143   O544      0.69462      .   S
    C151   O544      0.69462      .   S
    C143   O545      0.54492      .   S
    C33    O545      0.54492      .   S
    C142   O546      0.69446      .   S
    C150   O546      0.69446      .   S
    C142   O547      0.54503      .   S
    C32    O547      0.54503      .   S
    C151   O548      0.54418      .   S
    C39    O548      0.54418      .   S
    C150   O549      0.54415      .   S
    C38    O549      0.54415      .   S
    C173   O550      0.69533      .   S
    C181   O550      0.69533      .   S
    C173   O551      0.54592      .   S
    C57    O551      0.54592      .   S
    C172   O552      0.69507      .   S
    C180   O552      0.69507      .   S
    C172   O553      0.54533      .   S
    C56    O553      0.54533      .   S
    C78    O554      0.51340      .   S
    C272   O554      0.51340      .   S
    C79    O555      0.51343      .   S
    C273   O555      0.51343      .   S
    C181   O556      0.54437      .   S
    C63    O556      0.54437      .   S
    C180   O557      0.54445      .   S
    C62    O557      0.54445      .   S
    C305   O558      0.63908      .   S
    C241   O558      0.63908      .   S
    C304   O559      0.63957      .   S
    C240   O559      0.63957      .   S
    C201   O560      0.64212      .   S
    C285   O560      0.64212      .   S
    C201   O561      0.74983      .   S
    C197   O561      0.74983      .   S
    C200   O562      0.64207      .   S
    C284   O562      0.64207      .   S
    C200   O563      0.74998      .   S
    C196   O563      0.74998      .   S
    C306   O564      0.64102      .   S
    C240   O564      0.64102      .   S
    C307   O565      0.64116      .   S
    C241   O565      0.64116      .   S
    C204   O566      0.69794      .   S
    C196   O566      0.69794      .   S
    C204   O567      0.70523      .   S
    C198   O567      0.70523      .   S
    C205   O568      0.69806      .   S
    C197   O568      0.69806      .   S
    C205   O569      0.70532      .   S
    C199   O569      0.70532      .   S
    C272   O570      0.69501      .   S
    C198   O570      0.69501      .   S
    C272   O571      0.51000      .   S
    C80    O571      0.51000      .   S
    C273   O572      0.69542      .   S
    C199   O572      0.69542      .   S
    C273   O573      0.50999      .   S
    C81    O573      0.50999      .   S
    C241   O574      0.74811      .   S
    C243   O574      0.74811      .   S
    C240   O575      0.74821      .   S
    C242   O575      0.74821      .   S
    C197   O576      0.69812      .   S
    C207   O576      0.69812      .   S
    C196   O577      0.69819      .   S
    C206   O577      0.69819      .   S
    C198   O578      0.70621      .   S
    C202   O578      0.70621      .   S
    C199   O579      0.70610      .   S
    C203   O579      0.70610      .   S
    C103   O580      0.54584      .   S
    C251   O580      0.54584      .   S
    C102   O581      0.54560      .   S
    C250   O581      0.54560      .   S
    C243   O582      0.70211      .   S
    C251   O582      0.70211  1_545   S
    C243   O583      0.69483      .   S
    C255   O583      0.69483      .   S
    C242   O584      0.70188      .   S
    C250   O584      0.70188  1_545   S
    C242   O585      0.69978      .   S
    C254   O585      0.69978      .   S
    C207   O586      0.54190      .   S
    C77    O586      0.54190      .   S
    C207   O587      0.69941      .   S
    C195   O587      0.69941      .   S
    C206   O588      0.54171      .   S
    C76    O588      0.54171      .   S
    C206   O589      0.69961      .   S
    C194   O589      0.69961      .   S
    C202   O590      0.70210      .   S
    C194   O590      0.70210      .   S
    C202   O591      0.54584      .   S
    C72    O591      0.54584      .   S
    C203   O592      0.70208      .   S
    C195   O592      0.70208      .   S
    C203   O593      0.54581      .   S
    C73    O593      0.54581      .   S
    C251   O594      0.70624      .   S
    C247   O594      0.70624      .   S
    C106   O595      0.54164      .   S
    C254   O595      0.54164      .   S
    C107   O596      0.53932      .   S
    C255   O596      0.53932      .   S
    C250   O597      0.70685      .   S
    C246   O597      0.70685      .   S
    C255   O598      0.70600      .   S
    C245   O598      0.70600      .   S
    C254   O599      0.69916      .   S
    C244   O599      0.69916      .   S
    C194   O600      0.74859      .   S
    C192   O600      0.74859      .   S
    C195   O601      0.74821      .   S
    C193   O601      0.74821      .   S
    C247   O602      0.69408      .   S
    C279   O602      0.69408      .   S
    C247   O603      0.70514      .   S
    C253   O603      0.70514  1_565   S
    C111   O604      0.50975      .   S
    C279   O604      0.50975      .   S
    C110   O605      0.50915      .   S
    C278   O605      0.50915      .   S
    C246   O606      0.69188      .   S
    C278   O606      0.69188      .   S
    C246   O607      0.70474      .   S
    C252   O607      0.70474  1_565   S
    C245   O608      0.69777      .   S
    C253   O608      0.69777      .   S
    C245   O609      0.74891      .   S
    C249   O609      0.74891      .   S
    C244   O610      0.69734      .   S
    C252   O610      0.69734      .   S
    C244   O611      0.74985      .   S
    C248   O611      0.74985      .   S
    C279   O612      0.51312      .   S
    C109   O612      0.51312      .   S
    C54    O613      0.54468      .   S
    C170   O613      0.54468      .   S
    C55    O614      0.54485      .   S
    C171   O614      0.54485      .   S
    C193   O615      0.64147      .   S
    C283   O615      0.64147      .   S
    C193   O616      0.63820      .   S
    C281   O616      0.63820      .   S
    C192   O617      0.64172      .   S
    C282   O617      0.64172  1_455   S
    C192   O618      0.63782      .   S
    C280   O618      0.63782      .   S
    C278   O619      0.51269      .   S
    C108   O619      0.51269      .   S
    C49    O620      0.54531      .   S
    C163   O620      0.54531      .   S
    C48    O621      0.54539      .   S
    C162   O621      0.54539      .   S
    C309   O622      0.64299      .   S
    C249   O622      0.64299      .   S
    C309   O623      1.15821      .   S
    C1     O623      1.15821      .   S
    C308   O624      0.64334      .   S
    C248   O624      0.64334      .   S
    C308   O625      1.15562      .   S
    C0     O625      1.15562      .   S
    C253   O626      0.54431      .   S
    C105   O626      0.54431      .   S
    C252   O627      0.54467      .   S
    C104   O627      0.54467      .   S
    C15    O628      0.54473      .   S
    C121   O628      0.54473      .   S
    C14    O629      0.54462      .   S
    C120   O629      0.54462      .   S
    C9     O630      0.54515      .   S
    C113   O630      0.54515      .   S
    C8     O631      0.54502      .   S
    C112   O631      0.54502      .   S
    C43    O632      0.54475      .   S
    C155   O632      0.54475      .   S
    C42    O633      0.54459      .   S
    C154   O633      0.54459      .   S
    C45    O634      0.54512      .   S
    C157   O634      0.54512      .   S
    C249   O635      0.63601      .   S
    C311   O635      0.63601      .   S
    C44    O636      0.54548      .   S
    C156   O636      0.54548      .   S
    C248   O637      0.63563      .   S
    C310   O637      0.63563      .   S
    C280   O638      1.20670      .   S
    C0     O638      1.20670  1_455   S
    C281   O639      1.20193      .   S
    C1     O639      1.20193      .   S
    C170   O640      0.69523      .   S
    C162   O640      0.69523      .   S
    C170   O641      0.70208      .   S
    C168   O641      0.70208      .   S
    C171   O642      0.69535      .   S
    C163   O642      0.69535      .   S
    C171   O643      0.70186      .   S
    C169   O643      0.70186      .   S
    C163   O644      0.67339      .   S
    C267   O644      0.67339      .   S
    C162   O645      0.67304      .   S
    C266   O645      0.67304      .   S
    C19    O646      0.54465      .   S
    C125   O646      0.54465      .   S
    C21    O647      0.54559      .   S
    C127   O647      0.54559      .   S
    C120   O648      0.69491      .   S
    C112   O648      0.69491      .   S
    C120   O649      0.70188      .   S
    C118   O649      0.70188      .   S
    C121   O650      0.69491      .   S
    C113   O650      0.69491      .   S
    C121   O651      0.70171      .   S
    C119   O651      0.70171      .   S
    C112   O652      0.67285      .   S
    C256   O652      0.67285      .   S
    C113   O653      0.67330      .   S
    C257   O653      0.67330      .   S
    C18    O654      0.54460      .   S
    C124   O654      0.54460      .   S
    C20    O655      0.54572      .   S
    C126   O655      0.54572      .   S
    C155   O656      0.69442      .   S
    C157   O656      0.69442      .   S
    C154   O657      0.69489      .   S
    C156   O657      0.69489      .   S
    C125   O658      0.69486      .   S
    C127   O658      0.69486      .   S
    C124   O659      0.69529      .   S
    C126   O659      0.69529      .   S
    C311   O660      1.27296      .   S
    C1     O660      1.27296      .   S
    C310   O661      1.27217      .   S
    C0     O661      1.27217      .   S
    C118   O662      0.73940      .   S
    C168   O662      0.73940      .   S
    C256   O663      1.19137      .   S
    C1     O663      1.19137      .   S
    C119   O664      0.73916      .   S
    C169   O664      0.73916      .   S
    C257   O665      1.19053      .   S
    C0     O665      1.19053  1_455   S
    C1     O666      1.20033      .   S
    C267   O666      1.20033      .   S
    C0     O667      1.19324      .   S
    C266   O667      1.19324      .   S
