# CIF file generated by openbabel 2.4.90, see http://openbabel.sf.net
data_I
_chemical_name_common ''
_cell_length_a 13.063
_cell_length_b 13.036
_cell_length_c 17.836
_cell_angle_alpha 98.267
_cell_angle_beta 98.318
_cell_angle_gamma 118.299
_space_group_name_H-M_alt 'P 1'
_space_group_name_Hall 'P 1'
loop_
    _symmetry_equiv_pos_as_xyz
    x,y,z
loop_
    _atom_site_label
    _atom_site_type_symbol
    _atom_site_fract_x
    _atom_site_fract_y
    _atom_site_fract_z
    _atom_site_occupancy
    H0      H    0.78374   0.95313   0.81245   1.000
    H1      H    0.01921   0.11339   0.81170   1.000
    H2      H    0.95608   0.23750   0.02089   1.000
    H3      H    0.57708   0.68933   0.06871   1.000
    H4      H    0.54171   0.87090   0.03000   1.000
    H5      H    0.84612   0.89250   0.95981   1.000
    H6      H    0.76021   0.05868   0.12133   1.000
    H7      H    0.75557   0.37723   0.10553   1.000
    H8      H    0.70674   0.24441   0.95749   1.000
    H9      H    0.67193   0.13496   0.83035   1.000
    H10     H    0.45894   0.98869   0.71904   1.000
    H11     H    0.49037   0.79716   0.88446   1.000
    H12     H    0.04659   0.21591   0.68740   1.000
    H13     H    0.88587   0.98031   0.68837   1.000
    H14     H    0.76297   0.04365   0.47880   1.000
    H15     H    0.31002   0.42349   0.43103   1.000
    H16     H    0.12841   0.45841   0.46936   1.000
    H17     H    0.10786   0.15403   0.54025   1.000
    H18     H    0.94095   0.23928   0.37837   1.000
    H19     H    0.62316   0.24392   0.39440   1.000
    H20     H    0.75642   0.29360   0.54244   1.000
    H21     H    0.86556   0.32830   0.66941   1.000
    H22     H    0.01207   0.54125   0.78098   1.000
    H23     H    0.20285   0.50969   0.61545   1.000
    H24     H    0.21625   0.04688   0.18758   1.000
    H25     H    0.98078   0.88662   0.18833   1.000
    H26     H    0.04391   0.76253   0.97913   1.000
    H27     H    0.42291   0.31070   0.93130   1.000
    H28     H    0.45828   0.12913   0.96990   1.000
    H29     H    0.15387   0.10752   0.04021   1.000
    H30     H    0.23978   0.94135   0.87870   1.000
    H31     H    0.24441   0.62279   0.89449   1.000
    H32     H    0.29324   0.75561   0.04253   1.000
    H33     H    0.32807   0.86505   0.16967   1.000
    H34     H    0.54105   0.01129   0.28098   1.000
    H35     H    0.50961   0.20287   0.11558   1.000
    H36     H    0.95339   0.78412   0.31258   1.000
    H37     H    0.11411   0.01972   0.31166   1.000
    H38     H    0.23703   0.95637   0.52122   1.000
    H39     H    0.68997   0.57654   0.56900   1.000
    H40     H    0.87158   0.54162   0.53067   1.000
    H41     H    0.89213   0.84599   0.45970   1.000
    H42     H    0.05904   0.76075   0.62165   1.000
    H43     H    0.37683   0.75610   0.60562   1.000
    H44     H    0.24356   0.70642   0.45750   1.000
    H45     H    0.13443   0.67173   0.33061   1.000
    H46     H    0.98793   0.45878   0.21904   1.000
    H47     H    0.79714   0.49033   0.38458   1.000
    C48     C    0.85249   0.03469   0.85519   1.000
    C49     C    0.96852   0.11259   0.85480   1.000
    C50     C    0.93824   0.18123   0.96380   1.000
    C51     C    0.62770   0.75888   0.04037   1.000
    C52     C    0.60964   0.84827   0.02142   1.000
    C53     C    0.76862   0.86135   0.98449   1.000
    C54     C    0.75236   0.12740   0.09779   1.000
    C55     C    0.74955   0.29096   0.08740   1.000
    C56     C    0.72333   0.22436   0.01325   1.000
    C57     C    0.60190   0.04411   0.82604   1.000
    C58     C    0.49700   0.97029   0.77010   1.000
    C59     C    0.50976   0.86871   0.85489   1.000
    C60     C    0.96508   0.14717   0.64470   1.000
    C61     C    0.88698   0.03104   0.64517   1.000
    C62     C    0.81894   0.06147   0.53600   1.000
    C63     C    0.24067   0.37272   0.45939   1.000
    C64     C    0.15127   0.39055   0.47818   1.000
    C65     C    0.13873   0.23158   0.51545   1.000
    C66     C    0.87248   0.24726   0.40197   1.000
    C67     C    0.70933   0.25006   0.41248   1.000
    C68     C    0.77614   0.27670   0.48661   1.000
    C69     C    0.95632   0.39831   0.67378   1.000
    C70     C    0.03030   0.50319   0.72984   1.000
    C71     C    0.13148   0.49035   0.64501   1.000
    C72     C    0.14750   0.96532   0.14484   1.000
    C73     C    0.03147   0.88743   0.14520   1.000
    C74     C    0.06175   0.81879   0.03623   1.000
    C75     C    0.37229   0.24114   0.95966   1.000
    C76     C    0.39035   0.15175   0.97861   1.000
    C77     C    0.23136   0.13868   0.01554   1.000
    C78     C    0.24763   0.87262   0.90223   1.000
    C79     C    0.25043   0.70906   0.91261   1.000
    C80     C    0.27665   0.77566   0.98677   1.000
    C81     C    0.39809   0.95591   0.17390   1.000
    C82     C    0.50300   0.02973   0.22992   1.000
    C83     C    0.49023   0.13131   0.14514   1.000
    C84     C    0.03490   0.85286   0.35533   1.000
    C85     C    0.11300   0.96898   0.35486   1.000
    C86     C    0.18105   0.93856   0.46402   1.000
    C87     C    0.75932   0.62730   0.54064   1.000
    C88     C    0.84873   0.60947   0.52180   1.000
    C89     C    0.86126   0.76844   0.48458   1.000
    C90     C    0.12751   0.75277   0.59806   1.000
    C91     C    0.29066   0.74996   0.58754   1.000
    C92     C    0.22385   0.72332   0.51341   1.000
    C93     C    0.04367   0.60171   0.32625   1.000
    C94     C    0.96969   0.49684   0.27018   1.000
    C95     C    0.86851   0.50967   0.35501   1.000
    N96     N    0.02093   0.20376   0.92271   1.000
    N97     N    0.83350   0.07901   0.92474   1.000
    N98     N    0.72751   0.76789   0.01689   1.000
    N99     N    0.69986   0.91381   0.98564   1.000
    N100    N    0.76766   0.22907   0.14044   1.000
    N101    N    0.72431   0.11970   0.01977   1.000
    N102    N    0.60961   0.97951   0.88032   1.000
    N103    N    0.43972   0.85963   0.78866   1.000
    N104    N    0.79606   0.97873   0.57722   1.000
    N105    N    0.92116   0.16624   0.57504   1.000
    N106    N    0.23200   0.27293   0.48306   1.000
    N107    N    0.08606   0.30019   0.51409   1.000
    N108    N    0.77084   0.23172   0.35938   1.000
    N109    N    0.88055   0.27573   0.48001   1.000
    N110    N    0.02072   0.39056   0.61947   1.000
    N111    N    0.14077   0.56040   0.71134   1.000
    N112    N    0.97906   0.79626   0.07732   1.000
    N113    N    0.16649   0.92101   0.07529   1.000
    N114    N    0.27248   0.23213   0.98314   1.000
    N115    N    0.30012   0.08621   0.01439   1.000
    N116    N    0.23233   0.77095   0.85958   1.000
    N117    N    0.27568   0.88032   0.98025   1.000
    N118    N    0.39038   0.02051   0.11970   1.000
    N119    N    0.56027   0.14038   0.21130   1.000
    N120    N    0.20393   0.02130   0.42281   1.000
    N121    N    0.07883   0.83378   0.42499   1.000
    N122    N    0.76799   0.72710   0.51690   1.000
    N123    N    0.91393   0.69984   0.48590   1.000
    N124    N    0.22915   0.76830   0.64064   1.000
    N125    N    0.11944   0.72430   0.52002   1.000
    N126    N    0.97926   0.60946   0.38055   1.000
    N127    N    0.85922   0.43962   0.28860   1.000
loop_
    _geom_bond_atom_site_label_1
    _geom_bond_atom_site_label_2
    _geom_bond_distance
    _geom_bond_site_symmetry_2
    _ccdc_geom_bond_type
    C56    N101      1.39176      .   S
    C56    C55       1.37002      .   S
    C56    H8        1.08186  1_554   S
    N115   C77       1.36336      .   S
    N115   C76       1.39498  1_554   S
    C77    H29       1.08343      .   S
    C77    N114      1.33359  1_554   S
    N98    C51       1.38419      .   S
    N98    C53       1.33359  1_554   S
    N101   C54       1.36316      .   S
    H2     C50       1.08801  1_554   S
    C52    H4        1.08280      .   S
    C52    C51       1.37065      .   S
    C52    N99       1.39498  1_554   S
    C74    N113      1.36438      .   S
    C74    N112      1.33425  1_455   S
    C74    H26       1.08810  1_554   S
    C51    H3        1.08392      .   S
    H32    C80       1.08188  1_554   S
    N113   C72       1.39742      .   S
    N112   C73       1.38632  1_655   S
    C55    H7        1.08611      .   S
    C55    N100      1.39196      .   S
    C54    H6        1.08275      .   S
    C54    N100      1.33795      .   S
    H35    C83       1.08095      .   S
    N118   C83       1.35919      .   S
    N118   C81       1.39288  1_545   S
    C72    C73       1.36896      .   S
    C72    H24       1.08699  1_565   S
    C83    N119      1.33732      .   S
    C73    H25       1.08322  1_455   S
    H33    C81       1.08277      .   S
    C81    C82       1.37089  1_565   S
    N119   C82       1.39186      .   S
    H46    C94       1.08612      .   S
    C82    H34       1.08607      .   S
    C94    N127      1.39062      .   S
    C94    C93       1.37029  1_655   S
    N127   C95       1.33935      .   S
    H37    C85       1.08261  1_545   S
    H36    C84       1.08725  1_655   S
    C93    H45       1.08245      .   S
    C93    N126      1.39431  1_455   S
    C85    C84       1.36906      .   S
    C85    N120      1.38652  1_565   S
    C95    N126      1.35919      .   S
    C95    H47       1.08098      .   S
    C84    N121      1.39742      .   S
    N108   C66       1.33795      .   S
    N108   C67       1.39178      .   S
    H18    C66       1.08277      .   S
    H19    C67       1.08600      .   S
    C66    N109      1.36316      .   S
    C67    C68       1.37013      .   S
    N120   C86       1.33373  1_545   S
    N121   C86       1.36440      .   S
    H15    C63       1.08396      .   S
    H44    C92       1.08361      .   S
    C63    C64       1.37058      .   S
    C63    N106      1.38406      .   S
    H41    C89       1.08434      .   S
    C86    H38       1.08832      .   S
    H16    C64       1.08312      .   S
    C64    N107      1.39532      .   S
    H14    C62       1.08827      .   S
    N109   C68       1.39168      .   S
    N106   C65       1.33393      .   S
    C89    N123      1.36331      .   S
    C89    N122      1.33313      .   S
    N123   C88       1.39517      .   S
    C68    H20       1.08229      .   S
    C92    N125      1.39171      .   S
    C92    C91       1.37012      .   S
    N107   C65       1.36333      .   S
    C65    H17       1.08350      .   S
    N122   C87       1.38462      .   S
    N125   C90       1.36316      .   S
    C88    H40       1.08333      .   S
    C88    C87       1.37088      .   S
    C62    N105      1.36443      .   S
    C62    N104      1.33384  1_545   S
    C87    H39       1.08394      .   S
    N105   C60       1.39736      .   S
    N104   C61       1.38648  1_565   S
    C91    H43       1.08602      .   S
    C91    N124      1.39176      .   S
    C90    H42       1.08267      .   S
    C90    N124      1.33789      .   S
    H23    C71       1.08088      .   S
    N110   C71       1.35918      .   S
    N110   C69       1.39448  1_455   S
    C60    C61       1.36906      .   S
    C60    H12       1.08684  1_655   S
    C71    N111      1.33827      .   S
    C61    H13       1.08257  1_545   S
    H21    C69       1.08241      .   S
    C69    C70       1.37021  1_655   S
    N111   C70       1.39129      .   S
    H10    C58       1.08584      .   S
    C70    H22       1.08607      .   S
    C58    N103      1.39133      .   S
    C58    C57       1.37020  1_565   S
    N103   C59       1.33824      .   S
    H1     C49       1.08280  1_455   S
    H0     C48       1.08701  1_565   S
    C57    H9        1.08246      .   S
    C57    N102      1.39394  1_545   S
    C49    C48       1.36910      .   S
    C49    N96       1.38673  1_655   S
    C59    N102      1.35918      .   S
    C59    H11       1.08103      .   S
    C48    N97       1.39746      .   S
    N116   C78       1.33795      .   S
    N116   C79       1.39183      .   S
    H30    C78       1.08265      .   S
    H31    C79       1.08607      .   S
    C78    N117      1.36316      .   S
    C79    C80       1.37016      .   S
    N96    C50       1.33427  1_455   S
    N97    C50       1.36438      .   S
    H27    C75       1.08418      .   S
    C75    C76       1.37063      .   S
    C75    N114      1.38421      .   S
    H5     C53       1.08351      .   S
    H28    C76       1.08331      .   S
    N117   C80       1.39176      .   S
    C53    N99       1.36336      .   S
