# CIF file generated by openbabel 2.4.90, see http://openbabel.sf.net
data_I
_chemical_name_common ''
_cell_length_a 13.063
_cell_length_b 13.036
_cell_length_c 17.836
_cell_angle_alpha 98.267
_cell_angle_beta 98.318
_cell_angle_gamma 118.299
_space_group_name_H-M_alt 'P 1'
_space_group_name_Hall 'P 1'
loop_
    _symmetry_equiv_pos_as_xyz
    x,y,z
loop_
    _atom_site_label
    _atom_site_type_symbol
    _atom_site_fract_x
    _atom_site_fract_y
    _atom_site_fract_z
    _atom_site_occupancy
    Lv0     Lv   0.97732   0.28318   0.54731   1.000
    Lv1     Lv   0.54502   0.45560   0.25010   1.000
    Lv2     Lv   0.71682   0.02282   0.95246   1.000
    Lv3     Lv   0.45497   0.54443   0.74993   1.000
    Lv4     Lv   0.28316   0.97720   0.04757   1.000
    Lv5     Lv   0.02267   0.71684   0.45271   1.000
    Lv6     Lv   0.36627   0.63363   0.24981   1.000
    Lv7     Lv   0.63372   0.36639   0.75021   1.000
