# CIF file generated by openbabel 2.4.90, see http://openbabel.sf.net
data_I
_chemical_name_common ''
_cell_length_a 13.063
_cell_length_b 13.036
_cell_length_c 17.836
_cell_angle_alpha 98.267
_cell_angle_beta 98.318
_cell_angle_gamma 118.299
_space_group_name_H-M_alt 'P 1'
_space_group_name_Hall 'P 1'
loop_
    _symmetry_equiv_pos_as_xyz
    x,y,z
loop_
    _atom_site_label
    _atom_site_type_symbol
    _atom_site_fract_x
    _atom_site_fract_y
    _atom_site_fract_z
    _atom_site_occupancy
    B0      B    0.71682   0.02282   0.95246   1.000
    B1      B    0.97732   0.28318   0.54731   1.000
    B2      B    0.28316   0.97720   0.04757   1.000
    B3      B    0.02267   0.71684   0.45271   1.000
    H4      H    0.18526   0.45335   0.26181   1.000
    H5      H    0.39490   0.65807   0.11767   1.000
    H6      H    0.27240   0.35658   0.67133   1.000
    H7      H    0.49694   0.58766   0.89475   1.000
    H8      H    0.54741   0.81379   0.23783   1.000
    H9      H    0.34150   0.60527   0.38196   1.000
    H10     H    0.64301   0.72673   0.82853   1.000
    H11     H    0.41174   0.50248   0.60512   1.000
    H12     H    0.81472   0.54668   0.73822   1.000
    H13     H    0.60510   0.34194   0.88235   1.000
    H14     H    0.72759   0.64344   0.32869   1.000
    H15     H    0.50304   0.41237   0.10528   1.000
    H16     H    0.45260   0.18622   0.76219   1.000
    H17     H    0.65848   0.39476   0.61807   1.000
    H18     H    0.35697   0.27329   0.17150   1.000
    H19     H    0.58825   0.49754   0.39491   1.000
    C20     C    0.26376   0.53390   0.25734   1.000
    C21     C    0.27989   0.54839   0.18280   1.000
    C22     C    0.38204   0.65014   0.17600   1.000
    C23     C    0.37266   0.46659   0.78676   1.000
    C24     C    0.35183   0.44012   0.70518   1.000
    C25     C    0.47899   0.56965   0.83130   1.000
    C26     C    0.46650   0.73568   0.24228   1.000
    C27     C    0.45187   0.71967   0.31682   1.000
    C28     C    0.34960   0.61806   0.32361   1.000
    C29     C    0.53296   0.62663   0.71310   1.000
    C30     C    0.55939   0.64742   0.79468   1.000
    C31     C    0.42974   0.52042   0.66855   1.000
    C32     C    0.73622   0.46614   0.74268   1.000
    C33     C    0.72010   0.45163   0.81722   1.000
    C34     C    0.61796   0.34988   0.82401   1.000
    C35     C    0.62733   0.53344   0.21326   1.000
    C36     C    0.64816   0.55990   0.29485   1.000
    C37     C    0.52100   0.43037   0.16871   1.000
    C38     C    0.53350   0.26432   0.75770   1.000
    C39     C    0.54813   0.28035   0.68320   1.000
    C40     C    0.65040   0.38196   0.67641   1.000
    C41     C    0.46704   0.37338   0.28693   1.000
    C42     C    0.44059   0.35260   0.20535   1.000
    C43     C    0.57025   0.47961   0.33148   1.000
loop_
    _geom_bond_atom_site_label_1
    _geom_bond_atom_site_label_2
    _geom_bond_distance
    _geom_bond_site_symmetry_2
    _ccdc_geom_bond_type
    H15    C37       1.08844      .   S
    H5     C22       1.08920      .   S
    C37    C42       1.39199      .   S
    C37    C35       1.40358      .   S
    H18    C42       1.08878      .   S
    C22    C21       1.40332      .   S
    C22    C26       1.39120      .   S
    C21    C20       1.40115      .   S
    C42    C41       1.40086      .   S
    C35    C36       1.40100      .   S
    H8     C26       1.08957      .   S
    C26    C27       1.40114      .   S
    C20    H4        1.08964      .   S
    C20    C28       1.39115      .   S
    C41    C43       1.40358      .   S
    C36    H14       1.08874      .   S
    C36    C43       1.39184      .   S
    C27    C28       1.40321      .   S
    C28    H9        1.08956      .   S
    C43    H19       1.08845      .   S
    H11    C31       1.08845      .   S
    H17    C40       1.08939      .   S
    C31    C24       1.39185      .   S
    C31    C29       1.40358      .   S
    H6     C24       1.08878      .   S
    C40    C39       1.40321      .   S
    C40    C32       1.39114      .   S
    C39    C38       1.40045      .   S
    C24    C23       1.40084      .   S
    C29    C30       1.40085      .   S
    H12    C32       1.08957      .   S
    C32    C33       1.40114      .   S
    C38    H16       1.08982      .   S
    C38    C34       1.39154      .   S
    C23    C25       1.40353      .   S
    C30    H10       1.08878      .   S
    C30    C25       1.39177      .   S
    C33    C34       1.40326      .   S
    C34    H13       1.08937      .   S
    C25    H7        1.08878      .   S
