# CIF file generated by openbabel 2.4.90, see http://openbabel.sf.net
data_I
_chemical_name_common ''
_cell_length_a 13.063
_cell_length_b 13.036
_cell_length_c 17.836
_cell_angle_alpha 98.267
_cell_angle_beta 98.318
_cell_angle_gamma 118.299
_space_group_name_H-M_alt 'P 1'
_space_group_name_Hall 'P 1'
loop_
    _symmetry_equiv_pos_as_xyz
    x,y,z
loop_
    _atom_site_label
    _atom_site_type_symbol
    _atom_site_fract_x
    _atom_site_fract_y
    _atom_site_fract_z
    _atom_site_occupancy
    C0      C    0.19308   0.45081   0.11150   1.000
    C1      C    0.28050   0.38655   0.82528   1.000
    C2      C    0.54966   0.80621   0.38799   1.000
    C3      C    0.61314   0.71875   0.67450   1.000
    C4      C    0.80690   0.54922   0.88845   1.000
    C5      C    0.71949   0.61346   0.17470   1.000
    C6      C    0.45034   0.19380   0.61203   1.000
    C7      C    0.38685   0.28127   0.32546   1.000
