# CIF file generated by openbabel 2.4.90, see http://openbabel.sf.net
data_I
_chemical_name_common ''
_cell_length_a 13.063
_cell_length_b 13.036
_cell_length_c 17.836
_cell_angle_alpha 98.267
_cell_angle_beta 98.318
_cell_angle_gamma 118.299
_space_group_name_H-M_alt 'P 1'
_space_group_name_Hall 'P 1'
loop_
    _symmetry_equiv_pos_as_xyz
    x,y,z
loop_
    _atom_site_label
    _atom_site_type_symbol
    _atom_site_fract_x
    _atom_site_fract_y
    _atom_site_fract_z
    _atom_site_occupancy
    N0      N    0.97732   0.28318   0.54731   1.000
    N1      N    0.54502   0.45560   0.25010   1.000
    N2      N    0.71682   0.02282   0.95246   1.000
    N3      N    0.45497   0.54443   0.74993   1.000
    N4      N    0.28316   0.97720   0.04757   1.000
    N5      N    0.02267   0.71684   0.45271   1.000
    N6      N    0.36627   0.63363   0.24981   1.000
    N7      N    0.63372   0.36639   0.75021   1.000
    Zr8     Zr   0.61151   0.78666   0.53574   1.000
    O9      O    0.56276   0.69761   0.62880   1.000
    O10     O    0.69152   0.75359   0.52851   1.000
    O11     O    0.70999   0.88592   0.55866   1.000
    O12     O    0.52252   0.74247   0.41842   1.000
    Zr13    Zr   0.78739   0.61143   0.03605   1.000
    O14     O    0.74300   0.52242   0.91878   1.000
    O15     O    0.69831   0.56298   0.12904   1.000
    O16     O    0.88649   0.71002   0.05889   1.000
    O17     O    0.75414   0.69141   0.02863   1.000
    Zr18    Zr   0.38848   0.21336   0.46428   1.000
    O19     O    0.47748   0.25755   0.58160   1.000
    O20     O    0.29000   0.11410   0.44136   1.000
    O21     O    0.30847   0.24643   0.47150   1.000
    O22     O    0.43723   0.30241   0.37121   1.000
    Zr23    Zr   0.21259   0.38860   0.96394   1.000
    O24     O    0.30168   0.43705   0.87096   1.000
    O25     O    0.25698   0.47761   0.08121   1.000
    O26     O    0.24584   0.30861   0.97137   1.000
    O27     O    0.11350   0.29000   0.94112   1.000
    Zr28    Zr   0.26088   0.73951   0.75009   1.000
    O29     O    0.35174   0.80849   0.77220   1.000
    O30     O    0.19189   0.64856   0.72789   1.000
    O31     O    0.24388   0.74392   0.69090   1.000
    O32     O    0.25647   0.75632   0.80929   1.000
    Zr33    Zr   0.73911   0.26051   0.24994   1.000
    O34     O    0.80809   0.35147   0.27213   1.000
    O35     O    0.74352   0.24370   0.19074   1.000
    O36     O    0.75611   0.25611   0.30912   1.000
    O37     O    0.64825   0.19153   0.22782   1.000
loop_
    _geom_bond_atom_site_label_1
    _geom_bond_atom_site_label_2
    _geom_bond_distance
    _geom_bond_site_symmetry_2
    _ccdc_geom_bond_type
    Zr8    O9        2.16043      .   S
    N3     O9        3.17692      .   S
    Zr8    O10       1.32098      .   S
    N5     O10       4.92345  1_455   S
    Zr8    O11       1.27036      .   S
    N0     O11       4.73429  1_545   S
    Zr8    O12       2.09193      .   S
    N6     O12       3.07801      .   S
    Zr13   O14       2.09054  1_554   S
    N7     O14       3.07605      .   S
    Zr13   O15       2.16039      .   S
    N1     O15       3.17694      .   S
    Zr13   O16       1.26999      .   S
    N4     O16       4.73447  1_455   S
    Zr13   O17       1.32130      .   S
    N2     O17       4.92354  1_546   S
    Zr18   O19       2.09195      .   S
    N7     O19       3.07800      .   S
    Zr18   O20       1.27037      .   S
    N5     O20       4.73428  1_565   S
    Zr18   O21       1.32100      .   S
    N0     O21       4.92361  1_655   S
    Zr18   O22       2.16048      .   S
    N1     O22       3.17673      .   S
    Zr23   O24       2.16022      .   S
    N3     O24       3.17659      .   S
    Zr23   O25       2.09062  1_556   S
    N6     O25       3.07634      .   S
    Zr23   O26       1.32138      .   S
    N4     O26       4.92376  1_564   S
    Zr23   O27       1.26998      .   S
    N2     O27       4.73459  1_655   S
    Zr28   O29       1.05999      .   S
    N2     O29       4.60808  1_545   S
    Zr28   O30       1.05986      .   S
    N0     O30       4.60814  1_655   S
    Zr28   O31       1.06247      .   S
    N5     O31       4.64469      .   S
    Zr28   O32       1.06267      .   S
    N4     O32       4.64483  1_554   S
    Zr33   O34       1.05984      .   S
    N5     O34       4.60818  1_455   S
    Zr33   O35       1.06273      .   S
    N2     O35       4.64479  1_556   S
    Zr33   O36       1.06237      .   S
    N0     O36       4.64463      .   S
    Zr33   O37       1.06002      .   S
    N4     O37       4.60798  1_565   S
