# CIF file generated by openbabel 2.4.90, see http://openbabel.sf.net
data_I
_chemical_name_common ''
_cell_length_a 13.063
_cell_length_b 13.036
_cell_length_c 17.836
_cell_angle_alpha 98.267
_cell_angle_beta 98.318
_cell_angle_gamma 118.299
_space_group_name_H-M_alt 'P 1'
_space_group_name_Hall 'P 1'
loop_
    _symmetry_equiv_pos_as_xyz
    x,y,z
loop_
    _atom_site_label
    _atom_site_type_symbol
    _atom_site_fract_x
    _atom_site_fract_y
    _atom_site_fract_z
    _atom_site_occupancy
    Zr0     Zr   0.19351   0.33305   0.95888   1.000
    Zr1     Zr   0.66690   0.80589   0.54095   1.000
    Zr2     Zr   0.80648   0.66697   0.04114   1.000
    Zr3     Zr   0.33309   0.19413   0.45908   1.000
    Zr4     Zr   0.73911   0.26051   0.24994   1.000
    Zr5     Zr   0.26088   0.73951   0.75009   1.000
    Zr6     Zr   0.19308   0.45081   0.11150   1.000
    Zr7     Zr   0.28050   0.38655   0.82528   1.000
    Zr8     Zr   0.54966   0.80621   0.38799   1.000
    Zr9     Zr   0.61314   0.71875   0.67450   1.000
    Zr10    Zr   0.80690   0.54922   0.88845   1.000
    Zr11    Zr   0.71949   0.61346   0.17470   1.000
    Zr12    Zr   0.45034   0.19380   0.61203   1.000
    Zr13    Zr   0.38685   0.28127   0.32546   1.000
    Zr14    Zr   0.09445   0.36957   0.11681   1.000
    Zr15    Zr   0.23356   0.46126   0.04892   1.000
    Zr16    Zr   0.19700   0.28465   0.78780   1.000
    Zr17    Zr   0.29603   0.43429   0.89840   1.000
    Zr18    Zr   0.63122   0.90469   0.38265   1.000
    Zr19    Zr   0.53909   0.76562   0.45065   1.000
    Zr20    Zr   0.71474   0.80251   0.71209   1.000
    Zr21    Zr   0.56586   0.70295   0.60132   1.000
    Zr22    Zr   0.90551   0.63049   0.88320   1.000
    Zr23    Zr   0.76642   0.53876   0.95111   1.000
    Zr24    Zr   0.80300   0.71537   0.21214   1.000
    Zr25    Zr   0.70395   0.56573   0.10160   1.000
    Zr26    Zr   0.36880   0.09531   0.61737   1.000
    Zr27    Zr   0.46091   0.23440   0.54937   1.000
    Zr28    Zr   0.28525   0.19752   0.28794   1.000
    Zr29    Zr   0.43414   0.29708   0.39871   1.000
    O30     O    0.75522   0.61635   0.07137   1.000
    O31     O    0.78645   0.60286   0.99612   1.000
    O32     O    0.21332   0.45603   0.08021   1.000
    O33     O    0.21353   0.39716   0.00390   1.000
    O34     O    0.71172   0.58960   0.13815   1.000
    O35     O    0.14376   0.41019   0.11416   1.000
    O36     O    0.76125   0.66442   0.19342   1.000
    O37     O    0.33605   0.23940   0.30670   1.000
    O38     O    0.41049   0.28918   0.36209   1.000
    O39     O    0.59044   0.85545   0.38532   1.000
    O40     O    0.54437   0.78591   0.41932   1.000
    O41     O    0.38362   0.24560   0.42890   1.000
    O42     O    0.60299   0.78575   0.49580   1.000
    O43     O    0.39700   0.21426   0.50423   1.000
    O44     O    0.61638   0.75442   0.57113   1.000
    O45     O    0.45562   0.21410   0.58070   1.000
    O46     O    0.58950   0.71085   0.63791   1.000
    O47     O    0.40957   0.14456   0.61470   1.000
    O48     O    0.66394   0.76063   0.69329   1.000
    O49     O    0.23875   0.33560   0.80654   1.000
    O50     O    0.28827   0.41042   0.86184   1.000
    O51     O    0.85621   0.58986   0.88583   1.000
    O52     O    0.78666   0.54399   0.91978   1.000
    O53     O    0.24477   0.38367   0.92864   1.000
    N54     N    0.97732   0.28318   0.54731   1.000
    O55     O    0.77310   0.25170   0.36831   1.000
    O56     O    0.22846   0.27951   0.47871   1.000
    O57     O    0.80847   0.98519   0.58159   1.000
    O58     O    0.12291   0.55761   0.70569   1.000
    N59     N    0.54502   0.45560   0.25010   1.000
    O60     O    0.48598   0.39146   0.27815   1.000
    O61     O    0.60922   0.51452   0.22204   1.000
    N62     N    0.71682   0.02282   0.95246   1.000
    O63     O    0.74792   0.22688   0.13153   1.000
    O64     O    0.44260   0.87748   0.79430   1.000
    O65     O    0.01440   0.19141   0.91829   1.000
    O66     O    0.72089   0.77140   0.02122   1.000
    N67     N    0.45497   0.54443   0.74993   1.000
    O68     O    0.39077   0.48550   0.77798   1.000
    O69     O    0.51401   0.60856   0.72187   1.000
    N70     N    0.28316   0.97720   0.04757   1.000
    O71     O    0.27910   0.22863   0.97880   1.000
    O72     O    0.55739   0.12254   0.20570   1.000
    O73     O    0.98558   0.80861   0.08174   1.000
    O74     O    0.25206   0.77314   0.86849   1.000
    N75     N    0.02267   0.71684   0.45271   1.000
    O76     O    0.87707   0.44242   0.29431   1.000
    O77     O    0.19152   0.01484   0.41844   1.000
    O78     O    0.77153   0.72052   0.52129   1.000
    O79     O    0.22689   0.74832   0.63171   1.000
    N80     N    0.36627   0.63363   0.24981   1.000
    O81     O    0.30138   0.56662   0.19848   1.000
    O82     O    0.43352   0.69829   0.30111   1.000
    N83     N    0.63372   0.36639   0.75021   1.000
    O84     O    0.69861   0.43341   0.80152   1.000
    O85     O    0.56648   0.30173   0.69891   1.000
loop_
    _geom_bond_atom_site_label_1
    _geom_bond_atom_site_label_2
    _geom_bond_distance
    _geom_bond_site_symmetry_2
    _ccdc_geom_bond_type
    Zr2    O30       0.98101      .   S
    Zr25   O30       0.98101      .   S
    Zr2    O31       0.97488  1_554   S
    Zr23   O31       0.97488      .   S
    Zr15   O32       0.65005      .   S
    Zr6    O32       0.65005      .   S
    Zr15   O33       0.97493      .   S
    Zr0    O33       0.97493  1_556   S
    Zr25   O34       0.65167      .   S
    Zr11   O34       0.65167      .   S
    Zr6    O35       0.62468      .   S
    Zr14   O35       0.62468      .   S
    Zr11   O36       0.62466      .   S
    Zr24   O36       0.62466      .   S
    Zr28   O37       0.62456      .   S
    Zr13   O37       0.62456      .   S
    Zr13   O38       0.65181      .   S
    Zr29   O38       0.65181      .   S
    Zr18   O39       0.62449      .   S
    Zr8    O39       0.62449      .   S
    Zr8    O40       0.65069      .   S
    Zr19   O40       0.65069      .   S
    Zr29   O41       0.98105      .   S
    Zr3    O41       0.98105      .   S
    Zr19   O42       0.97531      .   S
    Zr1    O42       0.97531      .   S
    Zr3    O43       0.97526      .   S
    Zr27   O43       0.97526      .   S
    Zr1    O44       0.98104      .   S
    Zr21   O44       0.98104      .   S
    Zr27   O45       0.65069      .   S
    Zr12   O45       0.65069      .   S
    Zr21   O46       0.65123      .   S
    Zr9    O46       0.65123      .   S
    Zr12   O47       0.62450      .   S
    Zr26   O47       0.62450      .   S
    Zr9    O48       0.62471      .   S
    Zr20   O48       0.62471      .   S
    Zr16   O49       0.62475      .   S
    Zr7    O49       0.62475      .   S
    Zr7    O50       0.65185      .   S
    Zr17   O50       0.65185      .   S
    Zr22   O51       0.62448      .   S
    Zr10   O51       0.62448      .   S
    Zr10   O52       0.65071      .   S
    Zr23   O52       0.65071      .   S
    Zr17   O53       0.98114      .   S
    Zr0    O53       0.98114      .   S
    N54    O55       3.68767      .   S
    Zr4    O55       2.12474      .   S
    N54    O56       3.68181  1_655   S
    Zr3    O56       2.16752      .   S
    N54    O57       3.64394  1_545   S
    Zr1    O57       2.10596      .   S
    N54    O58       3.67195  1_655   S
    Zr5    O58       2.11972      .   S
    N59    O60       1.07918      .   S
    Zr13   O60       1.83129      .   S
    N59    O61       1.07932      .   S
    Zr11   O61       1.83167      .   S
    N62    O63       3.68771  1_556   S
    Zr4    O63       2.12546      .   S
    N62    O64       3.67196  1_545   S
    Zr5    O64       2.11997      .   S
    N62    O65       3.64455  1_655   S
    Zr0    O65       2.10639      .   S
    N62    O66       3.68121  1_546   S
    Zr2    O66       2.16728      .   S
    N67    O68       1.07918      .   S
    Zr7    O68       1.83128      .   S
    N67    O69       1.07937      .   S
    Zr9    O69       1.83192      .   S
    N70    O71       3.68132  1_564   S
    Zr0    O71       2.16726      .   S
    N70    O72       3.67170  1_565   S
    Zr4    O72       2.12004      .   S
    N70    O73       3.64451  1_455   S
    Zr2    O73       2.10641      .   S
    N70    O74       3.68780  1_554   S
    Zr5    O74       2.12534      .   S
    N75    O76       3.67214  1_455   S
    Zr4    O76       2.11968      .   S
    N75    O77       3.64392  1_565   S
    Zr3    O77       2.10596      .   S
    N75    O78       3.68161  1_455   S
    Zr1    O78       2.16763      .   S
    N75    O79       3.68766      .   S
    Zr5    O79       2.12493      .   S
    N80    O81       1.07856      .   S
    Zr6    O81       1.83135      .   S
    N80    O82       1.07834      .   S
    Zr8    O82       1.83070      .   S
    N83    O84       1.07838      .   S
    Zr10   O84       1.83079      .   S
    N83    O85       1.07832      .   S
    Zr12   O85       1.83069      .   S
