# CIF file generated by openbabel 2.4.90, see http://openbabel.sf.net
data_I
_chemical_name_common ''
_cell_length_a 15.494
_cell_length_b 15.52
_cell_length_c 15.511
_cell_angle_alpha 74.375
_cell_angle_beta 74.601
_cell_angle_gamma 74.551
_space_group_name_H-M_alt 'P 1'
_space_group_name_Hall 'P 1'
loop_
    _symmetry_equiv_pos_as_xyz
    x,y,z
loop_
    _atom_site_label
    _atom_site_type_symbol
    _atom_site_fract_x
    _atom_site_fract_y
    _atom_site_fract_z
    _atom_site_occupancy
    C0      C    0.47623   0.99704   0.47567   1.000
    C1      C    0.47601   0.47583   0.99706   1.000
    C2      C    0.99691   0.47606   0.47600   1.000
    C3      C    0.00296   0.52408   0.52380   1.000
    C4      C    0.52370   0.52428   0.00288   1.000
    C5      C    0.52402   0.00298   0.52400   1.000
loop_
    _geom_bond_atom_site_label_1
    _geom_bond_atom_site_label_2
    _geom_bond_distance
    _geom_bond_site_symmetry_2
    _ccdc_geom_bond_type
    C4     C1        1.21968  1_554   S
    C0     C5        1.21944  1_565   S
    C2     C3        1.21892  1_655   S
