# CIF file generated by openbabel 2.4.90, see http://openbabel.sf.net
data_I
_chemical_name_common ''
_cell_length_a 15.494
_cell_length_b 15.52
_cell_length_c 15.511
_cell_angle_alpha 74.375
_cell_angle_beta 74.601
_cell_angle_gamma 74.551
_space_group_name_H-M_alt 'P 1'
_space_group_name_Hall 'P 1'
loop_
    _symmetry_equiv_pos_as_xyz
    x,y,z
loop_
    _atom_site_label
    _atom_site_type_symbol
    _atom_site_fract_x
    _atom_site_fract_y
    _atom_site_fract_z
    _atom_site_occupancy
    H0      H    0.52785   0.99104   0.29704   1.000
    H1      H    0.29721   0.52700   0.99163   1.000
    H2      H    0.99144   0.29726   0.52786   1.000
    H3      H    0.00881   0.47230   0.70250   1.000
    H4      H    0.47197   0.70296   0.00876   1.000
    H5      H    0.70274   0.00852   0.47277   1.000
    H6      H    0.47230   0.00894   0.70262   1.000
    H7      H    0.70250   0.47305   0.00827   1.000
    H8      H    0.00859   0.70285   0.47199   1.000
    H9      H    0.99095   0.52782   0.29727   1.000
    H10     H    0.52781   0.29716   0.99116   1.000
    H11     H    0.29751   0.99154   0.52700   1.000
    H12     H    0.26495   0.97693   0.26465   1.000
    H13     H    0.26496   0.26471   0.97702   1.000
    H14     H    0.97664   0.26534   0.26540   1.000
    H15     H    0.02336   0.73468   0.73448   1.000
    H16     H    0.73491   0.73534   0.02269   1.000
    H17     H    0.73508   0.02322   0.73517   1.000
    C18     C    0.40063   0.98310   0.27134   1.000
    C19     C    0.45636   0.98825   0.32661   1.000
    C20     C    0.27152   0.40011   0.98347   1.000
    C21     C    0.32688   0.45569   0.98862   1.000
    C22     C    0.98319   0.27174   0.40086   1.000
    C23     C    0.98834   0.32696   0.45641   1.000
    C24     C    0.01696   0.59924   0.72810   1.000
    C25     C    0.01175   0.54373   0.67286   1.000
    C26     C    0.59922   0.72864   0.01661   1.000
    C27     C    0.54349   0.67339   0.01151   1.000
    C28     C    0.72847   0.01677   0.59970   1.000
    C29     C    0.67311   0.01155   0.54410   1.000
    C30     C    0.59945   0.01696   0.72841   1.000
    C31     C    0.54378   0.01177   0.67309   1.000
    C32     C    0.72828   0.59993   0.01634   1.000
    C33     C    0.67287   0.54437   0.01124   1.000
    C34     C    0.01683   0.72832   0.59901   1.000
    C35     C    0.01165   0.67313   0.54340   1.000
    C36     C    0.98292   0.40083   0.27177   1.000
    C37     C    0.98809   0.45637   0.32699   1.000
    C38     C    0.40062   0.27143   0.98320   1.000
    C39     C    0.45630   0.32671   0.98830   1.000
    C40     C    0.27167   0.98332   0.40010   1.000
    C41     C    0.32708   0.98851   0.45560   1.000
    C42     C    0.30831   0.98024   0.30795   1.000
    C43     C    0.42022   0.99085   0.41958   1.000
    C44     C    0.30827   0.30801   0.98034   1.000
    C45     C    0.42007   0.41966   0.99095   1.000
    C46     C    0.97999   0.30858   0.30860   1.000
    C47     C    0.99069   0.42008   0.42011   1.000
    C48     C    0.01998   0.69147   0.69126   1.000
    C49     C    0.00919   0.58004   0.57974   1.000
    C50     C    0.69158   0.69204   0.01940   1.000
    C51     C    0.57967   0.58043   0.00890   1.000
    C52     C    0.69176   0.01987   0.69184   1.000
    C53     C    0.57998   0.00918   0.58013   1.000
loop_
    _geom_bond_atom_site_label_1
    _geom_bond_atom_site_label_2
    _geom_bond_distance
    _geom_bond_site_symmetry_2
    _ccdc_geom_bond_type
    H7     C33       1.08799      .   S
    H4     C27       1.08810      .   S
    C51    C33       1.40916      .   S
    C51    C27       1.40920      .   S
    C33    C32       1.39788      .   S
    C27    C26       1.39811      .   S
    C32    C50       1.39940      .   S
    C26    C50       1.39953      .   S
    C50    H16       1.08730      .   S
    H12    C42       1.08707      .   S
    H14    C46       1.08686      .   S
    C18    C42       1.39973      .   S
    C18    C19       1.39785      .   S
    C36    C46       1.39941      .   S
    C36    C37       1.39789      .   S
    H0     C19       1.08811      .   S
    H9     C37       1.08812      .   S
    C42    C40       1.39965      .   S
    C46    C22       1.39968      .   S
    C19    C43       1.40896      .   S
    C37    C47       1.40914      .   S
    C40    C41       1.39699      .   S
    C22    C23       1.39791      .   S
    C43    C41       1.40876      .   S
    C47    C23       1.40914      .   S
    C41    H11       1.08892      .   S
    C23    H2        1.08825      .   S
    H8     C35       1.08760      .   S
    H5     C29       1.08805      .   S
    C35    C49       1.40921      .   S
    C35    C34       1.39841      .   S
    C29    C53       1.40884      .   S
    C29    C28       1.39769      .   S
    C49    C25       1.40907      .   S
    C53    C31       1.40890      .   S
    C34    C48       1.39939      .   S
    C28    C52       1.39969      .   S
    C25    H3        1.08796      .   S
    C25    C24       1.39791      .   S
    C31    H6        1.08812      .   S
    C31    C30       1.39793      .   S
    C48    C24       1.39946      .   S
    C48    H15       1.08701      .   S
    C52    C30       1.39980      .   S
    C52    H17       1.08714      .   S
    H13    C44       1.08716      .   S
    C44    C38       1.39968      .   S
    C44    C20       1.39952      .   S
    C38    C39       1.39774      .   S
    C20    C21       1.39784      .   S
    C39    C45       1.40923      .   S
    C39    H10       1.08828      .   S
    C21    C45       1.40897      .   S
    C21    H1        1.08802      .   S
