# CIF file generated by openbabel 2.4.90, see http://openbabel.sf.net
data_I
_chemical_name_common ''
_cell_length_a 15.494
_cell_length_b 15.52
_cell_length_c 15.511
_cell_angle_alpha 74.375
_cell_angle_beta 74.601
_cell_angle_gamma 74.551
_space_group_name_H-M_alt 'P 1'
_space_group_name_Hall 'P 1'
loop_
    _symmetry_equiv_pos_as_xyz
    x,y,z
loop_
    _atom_site_label
    _atom_site_type_symbol
    _atom_site_fract_x
    _atom_site_fract_y
    _atom_site_fract_z
    _atom_site_occupancy
    Lv0     Lv   0.36384   0.98598   0.36332   1.000
    Lv1     Lv   0.63630   0.01409   0.63643   1.000
    Lv2     Lv   0.98581   0.36389   0.36392   1.000
    Lv3     Lv   0.01413   0.63619   0.63593   1.000
    Lv4     Lv   0.63605   0.63668   0.01375   1.000
    Lv5     Lv   0.36374   0.36339   0.98608   1.000
