# CIF file generated by openbabel 2.4.90, see http://openbabel.sf.net
data_I
_chemical_name_common ''
_cell_length_a 15.494
_cell_length_b 15.52
_cell_length_c 15.511
_cell_angle_alpha 74.375
_cell_angle_beta 74.601
_cell_angle_gamma 74.551
_space_group_name_H-M_alt 'P 1'
_space_group_name_Hall 'P 1'
loop_
    _symmetry_equiv_pos_as_xyz
    x,y,z
loop_
    _atom_site_label
    _atom_site_type_symbol
    _atom_site_fract_x
    _atom_site_fract_y
    _atom_site_fract_z
    _atom_site_occupancy
    Ts0     Ts   0.50012   0.00001   0.49984   1.000
    Ts1     Ts   0.99993   0.50007   0.49990   1.000
    Ts2     Ts   0.49985   0.50005   0.99997   1.000
