# CIF file generated by openbabel 2.4.90, see http://openbabel.sf.net
data_I
_chemical_name_common ''
_cell_length_a 15.494
_cell_length_b 15.52
_cell_length_c 15.511
_cell_angle_alpha 74.375
_cell_angle_beta 74.601
_cell_angle_gamma 74.551
_space_group_name_H-M_alt 'P 1'
_space_group_name_Hall 'P 1'
loop_
    _symmetry_equiv_pos_as_xyz
    x,y,z
loop_
    _atom_site_label
    _atom_site_type_symbol
    _atom_site_fract_x
    _atom_site_fract_y
    _atom_site_fract_z
    _atom_site_occupancy
    Cu0     Cu   0.00849   0.57355   0.00813   1.000
    Cu1     Cu   0.00876   0.00811   0.57352   1.000
    Cu2     Cu   0.99129   0.42648   0.99175   1.000
    Cu3     Cu   0.42628   0.99173   0.99144   1.000
    Cu4     Cu   0.99141   0.99192   0.42635   1.000
    C5      C    0.43888   0.98436   0.17189   1.000
    C6      C    0.17194   0.43840   0.98477   1.000
    C7      C    0.98466   0.17216   0.43912   1.000
    Cu8     Cu   0.57368   0.00835   0.00832   1.000
    C9      C    0.01548   0.56098   0.82774   1.000
    C10     C    0.56095   0.82805   0.01544   1.000
    C11     C    0.82803   0.01546   0.56142   1.000
    C12     C    0.56114   0.01569   0.82786   1.000
    C13     C    0.82785   0.56162   0.01506   1.000
    C14     C    0.01545   0.82789   0.56076   1.000
    C15     C    0.98435   0.43907   0.17214   1.000
    C16     C    0.43895   0.17203   0.98436   1.000
    C17     C    0.17212   0.98461   0.43840   1.000
    O18     O    0.52197   0.99315   0.14109   1.000
    O19     O    0.38493   0.97800   0.12528   1.000
    O20     O    0.14123   0.52134   0.99357   1.000
    O21     O    0.12515   0.38466   0.97846   1.000
    O22     O    0.99400   0.14101   0.52205   1.000
    O23     O    0.97801   0.12581   0.38527   1.000
    O24     O    0.00638   0.47803   0.85880   1.000
    O25     O    0.02204   0.61478   0.87419   1.000
    O26     O    0.47787   0.85896   0.00656   1.000
    O27     O    0.61493   0.87454   0.02189   1.000
    O28     O    0.85867   0.00673   0.47842   1.000
    O29     O    0.87486   0.02170   0.61520   1.000
    O30     O    0.47806   0.00687   0.85860   1.000
    O31     O    0.61506   0.02206   0.87450   1.000
    O32     O    0.85856   0.47868   0.00626   1.000
    O33     O    0.87464   0.61534   0.02140   1.000
    O34     O    0.00628   0.85902   0.47778   1.000
    O35     O    0.02204   0.87423   0.61465   1.000
    O36     O    0.99337   0.52204   0.14100   1.000
    O37     O    0.97787   0.38523   0.12570   1.000
    O38     O    0.52204   0.14114   0.99320   1.000
    O39     O    0.38500   0.12551   0.97792   1.000
    O40     O    0.14151   0.99328   0.52145   1.000
    O41     O    0.12527   0.97839   0.38466   1.000
    Og42    Og   0.42613   0.98394   0.20504   1.000
    Og43    Og   0.20513   0.42563   0.98434   1.000
    Og44    Og   0.98417   0.20535   0.42637   1.000
    Og45    Og   0.01597   0.57373   0.79453   1.000
    Og46    Og   0.57371   0.79491   0.01583   1.000
    Og47    Og   0.79484   0.01590   0.57418   1.000
    Og48    Og   0.57391   0.01612   0.79471   1.000
    Og49    Og   0.79466   0.57439   0.01549   1.000
    Og50    Og   0.01591   0.79470   0.57351   1.000
    Og51    Og   0.98387   0.42632   0.20535   1.000
    Og52    Og   0.42617   0.20516   0.98397   1.000
    Og53    Og   0.20530   0.98418   0.42563   1.000
loop_
    _geom_bond_atom_site_label_1
    _geom_bond_atom_site_label_2
    _geom_bond_distance
    _geom_bond_site_symmetry_2
    _ccdc_geom_bond_type
    O32    C13       1.27904      .   S
    O32    Cu2       1.97512  1_554   S
    O26    C10       1.27897      .   S
    O26    Cu3       1.97530  1_554   S
    Cu0    O33       1.97301  1_455   S
    Cu0    O36       1.97416  1_455   S
    Cu0    O25       1.97322  1_554   S
    Cu0    O20       1.97515  1_554   S
    Cu8    O27       1.97343  1_545   S
    Cu8    O18       1.97521  1_545   S
    Cu8    O31       1.97302  1_554   S
    Cu8    O38       1.97566  1_554   S
    C13    O33       1.27842      .   S
    C10    O27       1.27850      .   S
    O19    C5        1.27839      .   S
    O19    Cu3       1.97325  1_554   S
    O37    C15       1.27849      .   S
    O37    Cu2       1.97354  1_554   S
    O36    C15       1.27906      .   S
    O18    C5        1.27908      .   S
    O41    Cu4       1.97303  1_455   S
    O41    C17       1.27796      .   S
    O23    Cu4       1.97326  1_545   S
    O23    C7        1.27859      .   S
    Cu4    O34       1.97531  1_655   S
    Cu4    O28       1.97503  1_565   S
    C17    O40       1.27961      .   S
    C7     O22       1.27900      .   S
    O34    C14       1.27903      .   S
    O28    C11       1.27915      .   S
    O40    Cu1       1.97517  1_565   S
    O22    Cu1       1.97547  1_655   S
    C14    O35       1.27858      .   S
    C11    O29       1.27836      .   S
    Cu1    O35       1.97346  1_545   S
    Cu1    O29       1.97345  1_455   S
    C9     O24       1.27899      .   S
    C9     O25       1.27852      .   S
    C12    O30       1.27902      .   S
    C12    O31       1.27842      .   S
    O30    Cu3       1.97640  1_545   S
    O24    Cu2       1.97542  1_455   S
    O39    C16       1.27850      .   S
    O39    Cu3       1.97314  1_545   S
    O21    C6        1.27836      .   S
    O21    Cu2       1.97312  1_455   S
    C16    O38       1.27890      .   S
    C6     O20       1.27906      .   S
    Cu8    Cu3       2.45327  1_544   S
    Cu0    Cu2       2.45314  1_454   S
    Cu1    Cu4       2.45303  1_445   S
    C5     Og42      0.49840      .   S
    C6     Og43      0.49840      .   S
    C7     Og44      0.49841      .   S
    C9     Og45      0.49842      .   S
    C10    Og46      0.49837      .   S
    C11    Og47      0.49842      .   S
    C12    Og48      0.49842      .   S
    C13    Og49      0.49840      .   S
    C14    Og50      0.49839      .   S
    C15    Og51      0.49841      .   S
    C16    Og52      0.49841      .   S
    C17    Og53      0.49839      .   S
