# CIF file generated by openbabel 2.4.90, see http://openbabel.sf.net
data_I
_chemical_name_common ''
_cell_length_a 15.494
_cell_length_b 15.52
_cell_length_c 15.511
_cell_angle_alpha 74.375
_cell_angle_beta 74.601
_cell_angle_gamma 74.551
_space_group_name_H-M_alt 'P 1'
_space_group_name_Hall 'P 1'
loop_
    _symmetry_equiv_pos_as_xyz
    x,y,z
loop_
    _atom_site_label
    _atom_site_type_symbol
    _atom_site_fract_x
    _atom_site_fract_y
    _atom_site_fract_z
    _atom_site_occupancy
    N0      N    0.36384   0.98598   0.36332   1.000
    N1      N    0.63630   0.01409   0.63643   1.000
    O2      O    0.45308   0.99498   0.45265   1.000
    N3      N    0.98581   0.36389   0.36392   1.000
    N4      N    0.01413   0.63619   0.63593   1.000
    O5      O    0.00502   0.54710   0.54687   1.000
    N6      N    0.63605   0.63668   0.01375   1.000
    N7      N    0.36374   0.36339   0.98608   1.000
    O8      O    0.54686   0.54729   0.00489   1.000
    Zr9     Zr   0.49998   0.00003   0.99988   1.000
    O10     O    0.55403   0.85377   0.00738   1.000
    O11     O    0.55414   0.00762   0.85358   1.000
    O12     O    0.44587   0.14629   0.99241   1.000
    O13     O    0.44589   0.99244   0.14617   1.000
    Zr14    Zr   0.00008   0.00002   0.49993   1.000
    O15     O    0.00761   0.85359   0.55392   1.000
    O16     O    0.85368   0.00756   0.55421   1.000
    O17     O    0.99247   0.14647   0.44594   1.000
    O18     O    0.14647   0.99250   0.44561   1.000
    Zr19    Zr   0.99990   0.50001   0.99993   1.000
    O20     O    0.85348   0.55437   0.00732   1.000
    O21     O    0.99231   0.44597   0.14643   1.000
    O22     O    0.00754   0.55408   0.85342   1.000
    O23     O    0.14632   0.44567   0.99251   1.000
loop_
    _geom_bond_atom_site_label_1
    _geom_bond_atom_site_label_2
    _geom_bond_distance
    _geom_bond_site_symmetry_2
    _ccdc_geom_bond_type
    N1     O2        4.63390  1_545   S
    N0     O2        2.25302      .   S
    N3     O5        4.63392  1_655   S
    N4     O5        2.25307      .   S
    N7     O8        4.63515  1_556   S
    N6     O8        2.25357      .   S
    Zr9    O10       2.18268  1_546   S
    N6     O10       3.25313      .   S
    Zr9    O11       2.18289      .   S
    N1     O11       3.25343      .   S
    Zr9    O12       2.18292      .   S
    N7     O12       3.25345      .   S
    Zr9    O13       2.18264  1_546   S
    N0     O13       3.25306      .   S
    Zr14   O15       2.18300  1_545   S
    N4     O15       3.25367      .   S
    Zr14   O16       2.18297  1_455   S
    N1     O16       3.25378      .   S
    Zr14   O17       2.18300  1_455   S
    N3     O17       3.25374      .   S
    Zr14   O18       2.18299  1_545   S
    N0     O18       3.25381      .   S
    Zr19   O20       2.18309  1_556   S
    N6     O20       3.25398      .   S
    Zr19   O21       2.18295  1_556   S
    N3     O21       3.25361      .   S
    Zr19   O22       2.18285  1_655   S
    N4     O22       3.25365      .   S
    Zr19   O23       2.18296  1_655   S
    N7     O23       3.25378      .   S
