# CIF file generated by openbabel 2.4.90, see http://openbabel.sf.net
data_I
_chemical_name_common ''
_cell_length_a 9.647
_cell_length_b 19.512
_cell_length_c 23.029
_cell_angle_alpha 89.998
_cell_angle_beta 93.397
_cell_angle_gamma 89.999
_space_group_name_H-M_alt 'P 1'
_space_group_name_Hall 'P 1'
loop_
    _symmetry_equiv_pos_as_xyz
    x,y,z
loop_
    _atom_site_label
    _atom_site_type_symbol
    _atom_site_fract_x
    _atom_site_fract_y
    _atom_site_fract_z
    _atom_site_occupancy
    As0     As   0.27760   0.43460   0.59650   1.000
    As1     As   0.27762   0.93460   0.59651   1.000
    As2     As   0.77761   0.43460   0.59650   1.000
    As3     As   0.77764   0.93460   0.59651   1.000
    As4     As   0.22250   0.18459   0.90346   1.000
    As5     As   0.22251   0.68460   0.90346   1.000
    As6     As   0.72251   0.18459   0.90346   1.000
    As7     As   0.72252   0.68460   0.90346   1.000
    As8     As   0.22254   0.06540   0.40347   1.000
    As9     As   0.22254   0.56541   0.40347   1.000
    As10    As   0.72255   0.06540   0.40347   1.000
    As11    As   0.72255   0.56541   0.40347   1.000
    As12    As   0.27756   0.31540   0.09650   1.000
    As13    As   0.27756   0.81540   0.09650   1.000
    As14    As   0.77757   0.31540   0.09650   1.000
    As15    As   0.77758   0.81540   0.09650   1.000
    H16     H    0.39483   0.02886   0.87074   1.000
    H17     H    0.39483   0.52886   0.87074   1.000
    H18     H    0.89484   0.02886   0.87074   1.000
    H19     H    0.89485   0.52887   0.87074   1.000
    H20     H    0.06288   0.38243   0.58111   1.000
    H21     H    0.06290   0.88243   0.58111   1.000
    H22     H    0.56289   0.38243   0.58111   1.000
    H23     H    0.56291   0.88243   0.58111   1.000
    H24     H    0.48162   0.36843   0.68305   1.000
    H25     H    0.48164   0.86843   0.68305   1.000
    H26     H    0.98163   0.36843   0.68305   1.000
    H27     H    0.98165   0.86843   0.68305   1.000
    H28     H    0.05034   0.38877   0.78525   1.000
    H29     H    0.05036   0.88877   0.78526   1.000
    H30     H    0.55034   0.38877   0.78520   1.000
    H31     H    0.55037   0.88877   0.78526   1.000
    H32     H    0.26169   0.05891   0.78749   1.000
    H33     H    0.26170   0.55891   0.78749   1.000
    H34     H    0.76171   0.05891   0.78749   1.000
    H35     H    0.76172   0.55891   0.78749   1.000
    H36     H    0.18964   0.03690   0.68530   1.000
    H37     H    0.18964   0.53691   0.68530   1.000
    H38     H    0.68966   0.03691   0.68530   1.000
    H39     H    0.68966   0.53691   0.68534   1.000
    H40     H    0.14049   0.43823   0.86707   1.000
    H41     H    0.14049   0.93824   0.86708   1.000
    H42     H    0.64050   0.43823   0.86707   1.000
    H43     H    0.64051   0.93823   0.86707   1.000
    H44     H    0.07938   0.48227   0.92643   1.000
    H45     H    0.07938   0.98228   0.92643   1.000
    H46     H    0.57938   0.48227   0.92643   1.000
    H47     H    0.57939   0.98228   0.92643   1.000
    H48     H    0.10524   0.27886   0.62922   1.000
    H49     H    0.10525   0.77886   0.62920   1.000
    H50     H    0.60526   0.27886   0.62922   1.000
    H51     H    0.60527   0.77886   0.62920   1.000
    H52     H    0.43723   0.13243   0.91880   1.000
    H53     H    0.43724   0.63243   0.91885   1.000
    H54     H    0.93724   0.13243   0.91880   1.000
    H55     H    0.93725   0.63243   0.91885   1.000
    H56     H    0.01848   0.11843   0.81692   1.000
    H57     H    0.01848   0.61844   0.81692   1.000
    H58     H    0.51849   0.11843   0.81692   1.000
    H59     H    0.51850   0.61844   0.81692   1.000
    H60     H    0.44975   0.13876   0.71472   1.000
    H61     H    0.44976   0.63877   0.71472   1.000
    H62     H    0.94976   0.13876   0.71472   1.000
    H63     H    0.94976   0.63877   0.71472   1.000
    H64     H    0.23837   0.30891   0.71246   1.000
    H65     H    0.23838   0.80891   0.71246   1.000
    H66     H    0.73839   0.30890   0.71246   1.000
    H67     H    0.73840   0.80891   0.71246   1.000
    H68     H    0.31044   0.28691   0.81461   1.000
    H69     H    0.31045   0.78691   0.81461   1.000
    H70     H    0.81046   0.28691   0.81461   1.000
    H71     H    0.81047   0.78691   0.81461   1.000
    H72     H    0.35961   0.18821   0.63289   1.000
    H73     H    0.35962   0.68822   0.63289   1.000
    H74     H    0.85962   0.18821   0.63289   1.000
    H75     H    0.85962   0.68822   0.63289   1.000
    H76     H    0.42070   0.23227   0.57353   1.000
    H77     H    0.42071   0.73227   0.57353   1.000
    H78     H    0.92070   0.23227   0.57353   1.000
    H79     H    0.92072   0.73227   0.57353   1.000
    H80     H    0.10523   0.47113   0.12923   1.000
    H81     H    0.10524   0.97113   0.12920   1.000
    H82     H    0.60524   0.47114   0.12923   1.000
    H83     H    0.60526   0.97113   0.12920   1.000
    C84     C    0.16799   0.20158   0.82318   1.000
    C85     C    0.16800   0.70159   0.82318   1.000
    C86     C    0.66801   0.20158   0.82318   1.000
    H87     H    0.43726   0.11757   0.41886   1.000
    H88     H    0.43726   0.61757   0.41886   1.000
    H89     H    0.93727   0.11757   0.41886   1.000
    H90     H    0.93727   0.61757   0.41886   1.000
    H91     H    0.01849   0.13157   0.31693   1.000
    H92     H    0.01850   0.63157   0.31693   1.000
    H93     H    0.51850   0.13157   0.31693   1.000
    H94     H    0.51851   0.63158   0.31693   1.000
    H95     H    0.44974   0.11123   0.21473   1.000
    H96     H    0.44975   0.61124   0.21473   1.000
    H97     H    0.94976   0.11123   0.21473   1.000
    H98     H    0.94976   0.61123   0.21473   1.000
    H99     H    0.23837   0.44109   0.21248   1.000
    H100    H    0.23839   0.94109   0.21248   1.000
    H101    H    0.73839   0.44109   0.21248   1.000
    H102    H    0.73841   0.94109   0.21248   1.000
    H103    H    0.31046   0.46309   0.31462   1.000
    H104    H    0.31047   0.96309   0.31462   1.000
    H105    H    0.81048   0.46309   0.31462   1.000
    H106    H    0.81049   0.96309   0.31462   1.000
    H107    H    0.35959   0.06177   0.13291   1.000
    H108    H    0.35959   0.56178   0.13291   1.000
    H109    H    0.85960   0.06177   0.13290   1.000
    H110    H    0.85960   0.56178   0.13291   1.000
    C111    C    0.45530   0.04852   0.11168   1.000
    C112    C    0.45529   0.54853   0.11168   1.000
    C113    C    0.95531   0.04852   0.11168   1.000
    C114    C    0.95531   0.54853   0.11168   1.000
    H115    H    0.42068   0.01772   0.07355   1.000
    H116    H    0.42069   0.51773   0.07355   1.000
    H117    H    0.92070   0.01772   0.07355   1.000
    H118    H    0.92070   0.51773   0.07355   1.000
    H119    H    0.39487   0.22114   0.37076   1.000
    H120    H    0.39488   0.72115   0.37076   1.000
    H121    H    0.89487   0.22114   0.37076   1.000
    H122    H    0.89489   0.72115   0.37076   1.000
    H123    H    0.06283   0.36757   0.08112   1.000
    H124    H    0.06283   0.86757   0.08112   1.000
    H125    H    0.56284   0.36757   0.08112   1.000
    H126    H    0.56285   0.86757   0.08112   1.000
    H127    H    0.48158   0.38157   0.18305   1.000
    H128    H    0.48159   0.88157   0.18305   1.000
    H129    H    0.98159   0.38157   0.18305   1.000
    H130    H    0.98160   0.88157   0.18305   1.000
    H131    H    0.05033   0.36124   0.28525   1.000
    H132    H    0.05034   0.86125   0.28525   1.000
    H133    H    0.55034   0.36124   0.28525   1.000
    H134    H    0.55035   0.86124   0.28525   1.000
    H135    H    0.26171   0.19109   0.28750   1.000
    H136    H    0.26172   0.69110   0.28752   1.000
    H137    H    0.76173   0.19109   0.28750   1.000
    H138    H    0.76174   0.69110   0.28752   1.000
    H139    H    0.18962   0.21309   0.18537   1.000
    H140    H    0.18963   0.71310   0.18537   1.000
    H141    H    0.68964   0.21309   0.18537   1.000
    H142    H    0.68965   0.71309   0.18537   1.000
    H143    H    0.14052   0.31177   0.36700   1.000
    H144    H    0.14054   0.81177   0.36706   1.000
    H145    H    0.64053   0.31177   0.36706   1.000
    H146    H    0.64055   0.81178   0.36706   1.000
    H147    H    0.07944   0.26772   0.42643   1.000
    H148    H    0.07947   0.76773   0.42643   1.000
    H149    H    0.57946   0.26772   0.42643   1.000
    H150    H    0.57948   0.76773   0.42642   1.000
    C151    C    0.33210   0.45158   0.67678   1.000
    C152    C    0.33212   0.95159   0.67678   1.000
    C153    C    0.83211   0.45158   0.67678   1.000
    C154    C    0.83214   0.95159   0.67678   1.000
    C155    C    0.43294   0.41021   0.70569   1.000
    C156    C    0.43296   0.91022   0.70569   1.000
    C157    C    0.93295   0.41021   0.70569   1.000
    C158    C    0.93298   0.91022   0.70569   1.000
    C159    C    0.47199   0.42184   0.76394   1.000
    C160    C    0.47201   0.92184   0.76390   1.000
    C161    C    0.97200   0.42183   0.76394   1.000
    C162    C    0.97202   0.92184   0.76390   1.000
    C163    C    0.41249   0.47633   0.79445   1.000
    C164    C    0.41250   0.97633   0.79445   1.000
    C165    C    0.91251   0.47633   0.79445   1.000
    C166    C    0.91252   0.97633   0.79445   1.000
    C167    C    0.30977   0.01709   0.76459   1.000
    C168    C    0.30978   0.51709   0.76459   1.000
    C169    C    0.80979   0.01709   0.76459   1.000
    C170    C    0.80980   0.51709   0.76459   1.000
    C171    C    0.26954   0.50482   0.70678   1.000
    C172    C    0.26956   0.00000   0.70678   1.000
    C173    C    0.76956   0.50482   0.70670   1.000
    C174    C    0.76958   0.00000   0.70670   1.000
    C175    C    0.04478   0.45147   0.88800   1.000
    C176    C    0.04479   0.95148   0.88830   1.000
    C177    C    0.54479   0.45147   0.88800   1.000
    C178    C    0.54480   0.95148   0.88830   1.000
    C179    C    0.66801   0.70159   0.82318   1.000
    C180    C    0.06715   0.16021   0.79420   1.000
    C181    C    0.06716   0.66022   0.79427   1.000
    C182    C    0.56716   0.16021   0.79427   1.000
    C183    C    0.56717   0.66022   0.79427   1.000
    C184    C    0.02809   0.17184   0.73602   1.000
    C185    C    0.02810   0.67184   0.73602   1.000
    C186    C    0.52810   0.17184   0.73602   1.000
    C187    C    0.52811   0.67184   0.73602   1.000
    C188    C    0.08758   0.22633   0.70550   1.000
    C189    C    0.08759   0.72633   0.70550   1.000
    C190    C    0.58760   0.22633   0.70551   1.000
    C191    C    0.58761   0.72633   0.70551   1.000
    C192    C    0.19029   0.26709   0.73537   1.000
    C193    C    0.19030   0.76710   0.73537   1.000
    C194    C    0.69031   0.26709   0.73537   1.000
    C195    C    0.69032   0.76710   0.73537   1.000
    C196    C    0.23054   0.25482   0.79318   1.000
    C197    C    0.23055   0.75483   0.79318   1.000
    C198    C    0.73056   0.25482   0.79318   1.000
    C199    C    0.73057   0.75482   0.79318   1.000
    C200    C    0.45531   0.20147   0.61160   1.000
    C201    C    0.45532   0.70148   0.61166   1.000
    C202    C    0.95532   0.20147   0.61166   1.000
    C203    C    0.95533   0.70147   0.61166   1.000
    C204    C    0.16801   0.04841   0.32319   1.000
    C205    C    0.16802   0.54842   0.32319   1.000
    C206    C    0.66803   0.04841   0.32319   1.000
    C207    C    0.66803   0.54842   0.32319   1.000
    C208    C    0.06716   0.08979   0.29420   1.000
    C209    C    0.06717   0.58979   0.29420   1.000
    C210    C    0.56718   0.08979   0.29420   1.000
    C211    C    0.56718   0.58979   0.29420   1.000
    C212    C    0.02809   0.07816   0.23604   1.000
    C213    C    0.02810   0.57817   0.23600   1.000
    C214    C    0.52811   0.07816   0.23604   1.000
    C215    C    0.52812   0.57817   0.23600   1.000
    C216    C    0.08758   0.02367   0.20553   1.000
    C217    C    0.08759   0.52367   0.20553   1.000
    C218    C    0.58760   0.02367   0.20553   1.000
    C219    C    0.58760   0.52367   0.20553   1.000
    C220    C    0.19030   0.48291   0.23538   1.000
    C221    C    0.19031   0.98291   0.23538   1.000
    C222    C    0.69032   0.48291   0.23538   1.000
    C223    C    0.69033   0.98291   0.23538   1.000
    C224    C    0.23055   0.99518   0.29300   1.000
    C225    C    0.23056   0.49518   0.29300   1.000
    C226    C    0.73057   0.99518   0.29319   1.000
    C227    C    0.73057   0.49518   0.29319   1.000
    C228    C    0.33207   0.29841   0.17679   1.000
    C229    C    0.33208   0.79842   0.17679   1.000
    C230    C    0.83209   0.29841   0.17679   1.000
    C231    C    0.83210   0.79842   0.17679   1.000
    C232    C    0.43291   0.33979   0.20569   1.000
    C233    C    0.43292   0.83979   0.20569   1.000
    C234    C    0.93293   0.33979   0.20500   1.000
    C235    C    0.93294   0.83979   0.20569   1.000
    C236    C    0.47198   0.32817   0.26390   1.000
    C237    C    0.47199   0.82817   0.26394   1.000
    C238    C    0.97200   0.32816   0.26390   1.000
    C239    C    0.97201   0.82817   0.26394   1.000
    C240    C    0.41250   0.27368   0.29446   1.000
    C241    C    0.41251   0.77368   0.29446   1.000
    C242    C    0.91251   0.27368   0.29446   1.000
    C243    C    0.91252   0.77368   0.29446   1.000
    C244    C    0.30978   0.23291   0.26461   1.000
    C245    C    0.30979   0.73292   0.26461   1.000
    C246    C    0.80980   0.23291   0.26461   1.000
    C247    C    0.80981   0.73291   0.26461   1.000
    C248    C    0.26953   0.24518   0.20600   1.000
    C249    C    0.26953   0.74518   0.20680   1.000
    C250    C    0.76954   0.24518   0.20679   1.000
    C251    C    0.76955   0.74518   0.20600   1.000
    C252    C    0.04482   0.29853   0.38830   1.000
    C253    C    0.04485   0.79853   0.38830   1.000
    C254    C    0.54484   0.29853   0.38830   1.000
    C255    C    0.54486   0.79853   0.38830   1.000
    N256    N    0.45215   0.49221   0.85107   1.000
    N257    N    0.45216   0.99222   0.85107   1.000
    N258    N    0.95217   0.49221   0.85107   1.000
    N259    N    0.95218   0.99222   0.85107   1.000
    N260    N    0.04791   0.24222   0.64889   1.000
    N261    N    0.04792   0.74222   0.64889   1.000
    N262    N    0.54793   0.24221   0.64889   1.000
    N263    N    0.54794   0.74222   0.64889   1.000
    N264    N    0.04791   0.00778   0.14891   1.000
    N265    N    0.04791   0.50779   0.14891   1.000
    N266    N    0.54792   0.00778   0.14891   1.000
    N267    N    0.54792   0.50779   0.14891   1.000
    N268    N    0.45218   0.25779   0.35108   1.000
    N269    N    0.45219   0.75780   0.35108   1.000
    N270    N    0.95219   0.25779   0.35108   1.000
    N271    N    0.95221   0.75780   0.35108   1.000
    O272    O    0.41558   0.41140   0.55740   1.000
    O273    O    0.41560   0.91140   0.55740   1.000
    O274    O    0.91559   0.41140   0.55740   1.000
    O275    O    0.91561   0.91140   0.55741   1.000
    O276    O    0.15975   0.36352   0.59259   1.000
    O277    O    0.15977   0.86352   0.59250   1.000
    O278    O    0.65976   0.36352   0.59250   1.000
    O279    O    0.65978   0.86352   0.59259   1.000
    O280    O    0.18727   0.50320   0.56688   1.000
    O281    O    0.18729   0.00000   0.56688   1.000
    O282    O    0.68728   0.50320   0.56688   1.000
    O283    O    0.68730   0.00000   0.56688   1.000
    O284    O    0.08453   0.16140   0.94255   1.000
    O285    O    0.08454   0.66140   0.94255   1.000
    O286    O    0.58454   0.16140   0.94255   1.000
    O287    O    0.58455   0.66140   0.94255   1.000
    O288    O    0.34036   0.11352   0.90738   1.000
    O289    O    0.34037   0.61352   0.90738   1.000
    O290    O    0.84037   0.11352   0.90738   1.000
    O291    O    0.84038   0.61352   0.90738   1.000
    O292    O    0.31284   0.25319   0.93309   1.000
    O293    O    0.31285   0.75319   0.93309   1.000
    O294    O    0.81285   0.25319   0.93309   1.000
    O295    O    0.81286   0.75319   0.93309   1.000
    O296    O    0.08456   0.08859   0.44256   1.000
    O297    O    0.08456   0.58860   0.44256   1.000
    O298    O    0.58458   0.08859   0.44256   1.000
    O299    O    0.58457   0.58860   0.44256   1.000
    O300    O    0.34039   0.13648   0.40738   1.000
    O301    O    0.34039   0.63648   0.40738   1.000
    O302    O    0.84040   0.13648   0.40730   1.000
    O303    O    0.84040   0.63649   0.40730   1.000
    O304    O    0.31289   0.99681   0.43310   1.000
    O305    O    0.31288   0.49681   0.43310   1.000
    O306    O    0.81290   0.99681   0.43310   1.000
    O307    O    0.81289   0.49681   0.43310   1.000
    O308    O    0.41553   0.33860   0.05742   1.000
    O309    O    0.41554   0.83860   0.05742   1.000
    O310    O    0.91554   0.33860   0.05742   1.000
    O311    O    0.91555   0.83860   0.05742   1.000
    O312    O    0.15970   0.38648   0.09200   1.000
    O313    O    0.15970   0.88648   0.09259   1.000
    O314    O    0.65971   0.38648   0.09200   1.000
    O315    O    0.65972   0.88648   0.09200   1.000
    O316    O    0.18723   0.24680   0.06689   1.000
    O317    O    0.18723   0.74681   0.06689   1.000
    O318    O    0.68724   0.24680   0.06689   1.000
    O319    O    0.68725   0.74681   0.06689   1.000
loop_
    _geom_bond_atom_site_label_1
    _geom_bond_atom_site_label_2
    _geom_bond_distance
    _geom_bond_site_symmetry_2
    _ccdc_geom_bond_type
    O311   As15      1.71124      .   S
    O310   As14      1.71123      .   S
    O309   As13      1.71125      .   S
    O308   As12      1.71124      .   S
    O317   As13      1.71628      .   S
    O316   As12      1.71630      .   S
    O318   As14      1.71629      .   S
    O319   As15      1.71629      .   S
    H116   C112      1.09951      .   S
    H115   C111      1.09954      .   S
    H117   C113      1.09954      .   S
    H118   C114      1.09950      .   S
    H126   O315      1.02201      .   S
    H125   O314      1.02201      .   S
    H123   O312      1.02201      .   S
    H124   O313      1.02469      .   S
    O315   As15      1.79245      .   S
    O314   As14      1.79245      .   S
    O312   As12      1.79244      .   S
    O313   As13      1.79222      .   S
    C114   H110      1.10082      .   S
    C114   N265      1.44026  1_655   S
    C113   H109      1.10069      .   S
    C113   N264      1.44021  1_655   S
    C112   H108      1.10081      .   S
    C112   N267      1.44039      .   S
    C111   H107      1.10080      .   S
    C111   N266      1.44037      .   S
    H81    N264      1.02616  1_565   S
    H83    N266      1.02616  1_565   S
    H82    N267      1.02579      .   S
    H80    N265      1.02580      .   S
    N266   C218      1.37246      .   S
    N264   C216      1.37246      .   S
    N265   C217      1.37246      .   S
    N267   C219      1.37247      .   S
    C228   C232      1.40159      .   S
    C228   C248      1.39409      .   S
    C229   C233      1.40159      .   S
    C229   C249      1.40354      .   S
    C230   C234      1.39476      .   S
    C230   C250      1.40344      .   S
    C231   C235      1.40157      .   S
    C231   C251      1.39409      .   S
    H127   C232      1.08895      .   S
    H129   C234      1.08102      .   S
    H128   C233      1.08895      .   S
    H130   C235      1.08895      .   S
    H139   C248      1.08100      .   S
    H140   C249      1.08846      .   S
    H141   C250      1.08835      .   S
    H142   C251      1.08101      .   S
    C234   C238      1.40454      .   S
    C219   C222      1.41648      .   S
    C219   C215      1.41419      .   S
    C218   C223      1.41652  1_545   S
    C218   C214      1.41466      .   S
    C217   C220      1.41645      .   S
    C217   C213      1.41418      .   S
    C216   C221      1.41652  1_545   S
    C216   C212      1.41465      .   S
    C232   C236      1.38945      .   S
    C233   C237      1.39032      .   S
    C235   C239      1.39033      .   S
    C248   C244      1.40276      .   S
    C251   C247      1.40277      .   S
    C250   C246      1.38557      .   S
    C249   C245      1.38535      .   S
    H99    C220      1.08996      .   S
    H100   C221      1.08993      .   S
    H101   C222      1.08994      .   S
    H102   C223      1.08993      .   S
    H95    C214      1.08845      .   S
    H96    C215      1.08805      .   S
    H97    C212      1.08828  1_655   S
    H98    C213      1.08789  1_655   S
    C223   C226      1.38534      .   S
    C222   C227      1.38537      .   S
    C221   C224      1.38122      .   S
    C220   C225      1.38124      .   S
    C215   C211      1.38925      .   S
    C213   C209      1.38925      .   S
    C214   C210      1.38839      .   S
    C212   C208      1.38840      .   S
    C238   H131      1.08867  1_655   S
    C238   C242      1.41518      .   S
    C236   H133      1.08885      .   S
    C236   C240      1.41519      .   S
    C237   H134      1.08847      .   S
    C237   C241      1.41470      .   S
    C239   H132      1.08831  1_655   S
    C239   C243      1.41470      .   S
    C246   H137      1.08976      .   S
    C246   C242      1.41650      .   S
    C247   H138      1.08998      .   S
    C247   C243      1.41652      .   S
    C244   H135      1.08975      .   S
    C244   C240      1.41652      .   S
    C245   H136      1.08998      .   S
    C245   C241      1.41653      .   S
    C224   H104      1.09028      .   S
    C224   C204      1.40576  1_565   S
    C225   H103      1.09020      .   S
    C225   C205      1.40578      .   S
    C226   H106      1.08846      .   S
    C226   C206      1.40350  1_565   S
    C227   H105      1.08840      .   S
    C227   C207      1.40351      .   S
    C208   H91       1.09005      .   S
    C208   C204      1.40245      .   S
    C211   H94       1.09007      .   S
    C211   C207      1.40245      .   S
    C210   H93       1.09006      .   S
    C210   C206      1.40245      .   S
    C209   H92       1.09007      .   S
    C209   C205      1.40245      .   S
    C243   N271      1.37244      .   S
    C242   N270      1.37242      .   S
    C241   N269      1.37245      .   S
    C240   N268      1.37244      .   S
    N271   H122      1.02573      .   S
    N271   C253      1.44025  1_655   S
    N270   H121      1.02575      .   S
    N270   C252      1.44023  1_655   S
    N269   H120      1.02572      .   S
    N269   C255      1.44041      .   S
    N268   H119      1.02573      .   S
    N268   C254      1.44038      .   S
    H143   C252      1.10150      .   S
    H146   C255      1.10078      .   S
    H145   C254      1.10080      .   S
    H144   C253      1.10080      .   S
    C252   H147      1.09955      .   S
    C253   H148      1.09956      .   S
    C254   H149      1.09956      .   S
    C255   H150      1.09940      .   S
    As11   O303      1.79221      .   S
    As11   O307      1.71642      .   S
    As11   O299      1.71139      .   S
    As10   O302      1.79220      .   S
    As10   O306      1.71641  1_545   S
    As10   O298      1.71138      .   S
    As9    O301      1.79224      .   S
    As9    O305      1.71643      .   S
    As9    O297      1.71137      .   S
    As8    O300      1.79224      .   S
    As8    O304      1.71641  1_545   S
    As8    O296      1.71137      .   S
    O303   H90       1.02510      .   S
    O302   H89       1.02510      .   S
    O301   H88       1.02472      .   S
    O300   H87       1.02472      .   S
    O274   As2       1.71153      .   S
    O273   As1       1.71167      .   S
    O272   As0       1.71153      .   S
    O275   As3       1.71152      .   S
    O280   As0       1.71638      .   S
    O281   As1       1.66821  1_545   S
    O282   As2       1.71637      .   S
    O283   As3       1.66822  1_545   S
    H79    C203      1.09950      .   S
    H76    C200      1.09841      .   S
    H77    C201      1.09949      .   S
    H78    C202      1.09950      .   S
    H20    O276      1.02475      .   S
    H21    O277      1.02433      .   S
    H23    O279      1.02475      .   S
    H22    O278      1.02433      .   S
    O277   As1       1.79225      .   S
    O278   As2       1.79223      .   S
    O276   As0       1.79221      .   S
    O279   As3       1.79221      .   S
    C200   H72       1.10150      .   S
    C200   N262      1.44118      .   S
    C203   H75       1.10081      .   S
    C203   N261      1.44027  1_655   S
    C202   H74       1.10080      .   S
    C202   N260      1.44025  1_655   S
    C201   H73       1.10081      .   S
    C201   N263      1.44041      .   S
    H51    N263      1.02588      .   S
    H49    N261      1.02587      .   S
    H50    N262      1.02567      .   S
    H48    N260      1.02565      .   S
    N260   C188      1.37222      .   S
    N261   C189      1.37220      .   S
    N262   C190      1.37242      .   S
    N263   C191      1.37242      .   S
    C154   C158      1.40158      .   S
    C154   C174      1.33440  1_565   S
    C153   C157      1.40159      .   S
    C153   C173      1.40260      .   S
    C152   C156      1.40160      .   S
    C152   C172      1.33543  1_565   S
    C151   C155      1.40160      .   S
    C151   C171      1.40353      .   S
    H26    C157      1.08905      .   S
    H25    C156      1.08902      .   S
    H24    C155      1.08904      .   S
    H27    C158      1.08903      .   S
    H36    C172      1.14557      .   S
    H37    C171      1.08885      .   S
    H38    C174      1.14487      .   S
    H39    C173      1.08771      .   S
    C188   C192      1.41667      .   S
    C188   C184      1.41476      .   S
    C189   C193      1.41667      .   S
    C189   C185      1.41475      .   S
    C190   C194      1.41656      .   S
    C190   C186      1.41462      .   S
    C191   C195      1.41657      .   S
    C191   C187      1.41461      .   S
    C155   C159      1.39030      .   S
    C156   C160      1.38943      .   S
    C157   C161      1.39030      .   S
    C158   C162      1.38944      .   S
    C174   C169      1.40634      .   S
    C173   C170      1.38707      .   S
    C172   C167      1.40461      .   S
    C171   C168      1.38533      .   S
    H64    C192      1.09002      .   S
    H67    C195      1.09001      .   S
    H66    C194      1.09002      .   S
    H65    C193      1.09003      .   S
    H60    C186      1.08834      .   S
    H63    C185      1.08818  1_655   S
    H61    C187      1.08835      .   S
    H62    C184      1.08820  1_655   S
    C194   C198      1.38534      .   S
    C193   C197      1.38533      .   S
    C192   C196      1.38533      .   S
    C195   C199      1.38534      .   S
    C187   C183      1.39031      .   S
    C186   C182      1.39031      .   S
    C185   C181      1.39030      .   S
    C184   C180      1.38878      .   S
    C162   H29       1.08871  1_655   S
    C162   C166      1.41519      .   S
    C160   H31       1.08886      .   S
    C160   C164      1.41519      .   S
    C161   H28       1.08824  1_655   S
    C161   C165      1.41471      .   S
    C159   H30       1.08791      .   S
    C159   C163      1.41469      .   S
    C167   H32       1.08996      .   S
    C167   C164      1.41658  1_545   S
    C168   H33       1.08996      .   S
    C168   C163      1.41653      .   S
    C169   H34       1.08996      .   S
    C169   C166      1.41657  1_545   S
    C170   H35       1.08998      .   S
    C170   C165      1.41654      .   S
    C196   H68       1.08842      .   S
    C196   C84       1.40348      .   S
    C199   H71       1.08842      .   S
    C199   C179      1.40347      .   S
    C198   H70       1.08842      .   S
    C198   C86       1.40346      .   S
    C197   H69       1.08842      .   S
    C197   C85       1.40347      .   S
    C180   H56       1.08992      .   S
    C180   C84       1.40235      .   S
    C183   H59       1.08910      .   S
    C183   C179      1.40165      .   S
    C182   H58       1.08909      .   S
    C182   C86       1.40166      .   S
    C181   H57       1.08912      .   S
    C181   C85       1.40165      .   S
    C164   N257      1.37242      .   S
    C165   N258      1.37243      .   S
    C163   N256      1.37242      .   S
    C166   N259      1.37242      .   S
    N257   H16       1.02574  1_565   S
    N257   C178      1.44037      .   S
    N259   H18       1.02575  1_565   S
    N259   C176      1.44022  1_655   S
    N258   H19       1.02571      .   S
    N258   C175      1.43640  1_655   S
    N256   H17       1.02569      .   S
    N256   C177      1.43658      .   S
    H40    C175      1.09743      .   S
    H42    C177      1.09743      .   S
    H43    C178      1.10083      .   S
    H41    C176      1.10072      .   S
    C175   H44       1.10489      .   S
    C177   H46       1.10488      .   S
    C178   H47       1.09950      .   S
    C176   H45       1.09949      .   S
    As6    O290      1.79223      .   S
    As6    O294      1.71645      .   S
    As6    O286      1.71137      .   S
    As5    O289      1.79224      .   S
    As5    O293      1.71645      .   S
    As5    O285      1.71138      .   S
    As4    O288      1.79223      .   S
    As4    O292      1.71644      .   S
    As4    O284      1.71137      .   S
    As7    O291      1.79224      .   S
    As7    O295      1.71645      .   S
    As7    O287      1.71137      .   S
    O291   H55       1.02468      .   S
    O290   H54       1.02445      .   S
    O289   H53       1.02469      .   S
    O288   H52       1.02446      .   S
