# CIF file generated by openbabel 2.4.90, see http://openbabel.sf.net
data_I
_chemical_name_common ''
_cell_length_a 9.647
_cell_length_b 19.512
_cell_length_c 23.029
_cell_angle_alpha 89.998
_cell_angle_beta 93.397
_cell_angle_gamma 89.999
_space_group_name_H-M_alt 'P 1'
_space_group_name_Hall 'P 1'
loop_
    _symmetry_equiv_pos_as_xyz
    x,y,z
loop_
    _atom_site_label
    _atom_site_type_symbol
    _atom_site_fract_x
    _atom_site_fract_y
    _atom_site_fract_z
    _atom_site_occupancy
    C0      C    0.48694   0.88454   0.91133   1.000
    C1      C    0.51317   0.11546   0.08864   1.000
    C2      C    0.98692   0.38454   0.91133   1.000
    C3      C    0.98693   0.88454   0.91133   1.000
    C4      C    0.48693   0.38454   0.91133   1.000
    C5      C    0.51320   0.13454   0.58863   1.000
    C6      C    0.51320   0.63454   0.58863   1.000
    C7      C    0.00000   0.13454   0.58863   1.000
    C8      C    0.00000   0.63454   0.58863   1.000
    C9      C    0.51317   0.61546   0.08864   1.000
    C10     C    0.00000   0.11546   0.08864   1.000
    C11     C    0.00000   0.61546   0.08864   1.000
    C12     C    0.98698   0.36547   0.41134   1.000
    C13     C    0.98701   0.86547   0.41134   1.000
    C14     C    0.48699   0.36546   0.41134   1.000
    C15     C    0.48702   0.86547   0.41134   1.000
