# CIF file generated by openbabel 2.4.90, see http://openbabel.sf.net
data_I
_chemical_name_common ''
_cell_length_a 9.647
_cell_length_b 19.512
_cell_length_c 23.029
_cell_angle_alpha 89.998
_cell_angle_beta 93.397
_cell_angle_gamma 89.999
_space_group_name_H-M_alt 'P 1'
_space_group_name_Hall 'P 1'
loop_
    _symmetry_equiv_pos_as_xyz
    x,y,z
loop_
    _atom_site_label
    _atom_site_type_symbol
    _atom_site_fract_x
    _atom_site_fract_y
    _atom_site_fract_z
    _atom_site_occupancy
    Zr0     Zr   0.00009   0.99999   0.49999   1.000
    Zr1     Zr   0.00008   0.50000   0.49999   1.000
    Zr2     Zr   0.50010   0.99999   0.49999   1.000
    Zr3     Zr   0.50009   0.50000   0.49999   1.000
    Zr4     Zr   0.00004   0.25000   0.00000   1.000
    Zr5     Zr   0.00004   0.75001   0.99999   1.000
    Zr6     Zr   0.50005   0.25000   0.00000   1.000
    Zr7     Zr   0.50006   0.75001   0.99999   1.000
    Zr8     Zr   0.32763   0.32340   0.91079   1.000
    Zr9     Zr   0.32764   0.82341   0.91079   1.000
    Zr10    Zr   0.82764   0.32340   0.91079   1.000
    Zr11    Zr   0.82765   0.82341   0.91079   1.000
    Zr12    Zr   0.17250   0.07342   0.58917   1.000
    Zr13    Zr   0.17250   0.57342   0.58917   1.000
    Zr14    Zr   0.67251   0.07341   0.58917   1.000
    Zr15    Zr   0.67251   0.57342   0.58917   1.000
    Zr16    Zr   0.17245   0.17659   0.08918   1.000
    Zr17    Zr   0.17245   0.67659   0.08918   1.000
    Zr18    Zr   0.67246   0.17659   0.08918   1.000
    Zr19    Zr   0.67247   0.67659   0.08918   1.000
    Zr20    Zr   0.32769   0.42661   0.41080   1.000
    Zr21    Zr   0.32772   0.92661   0.41080   1.000
    Zr22    Zr   0.82770   0.42661   0.41080   1.000
    Zr23    Zr   0.82773   0.92661   0.41080   1.000
    Zr24    Zr   0.98692   0.38454   0.91133   1.000
    Zr25    Zr   0.98693   0.88454   0.91133   1.000
    Zr26    Zr   0.48693   0.38454   0.91133   1.000
    Zr27    Zr   0.48694   0.88454   0.91133   1.000
    Zr28    Zr   0.51320   0.13454   0.58863   1.000
    Zr29    Zr   0.51320   0.63454   0.58863   1.000
    Zr30    Zr   0.00000   0.13454   0.58863   1.000
    Zr31    Zr   0.00000   0.63454   0.58863   1.000
    Zr32    Zr   0.51317   0.11546   0.08864   1.000
    Zr33    Zr   0.51317   0.61546   0.08864   1.000
    Zr34    Zr   0.00000   0.11546   0.08864   1.000
    Zr35    Zr   0.00000   0.61546   0.08864   1.000
    Zr36    Zr   0.98698   0.36547   0.41134   1.000
    Zr37    Zr   0.98701   0.86547   0.41134   1.000
    Zr38    Zr   0.48699   0.36546   0.41134   1.000
    Zr39    Zr   0.48702   0.86547   0.41134   1.000
    Zr40    Zr   0.35663   0.37160   0.89514   1.000
    Zr41    Zr   0.35664   0.87160   0.89514   1.000
    Zr42    Zr   0.85664   0.37160   0.89514   1.000
    Zr43    Zr   0.85665   0.87160   0.89514   1.000
    Zr44    Zr   0.06400   0.34720   0.94268   1.000
    Zr45    Zr   0.06401   0.84720   0.94268   1.000
    Zr46    Zr   0.56401   0.34720   0.94268   1.000
    Zr47    Zr   0.56402   0.84721   0.94268   1.000
    Zr48    Zr   0.14350   0.12161   0.60483   1.000
    Zr49    Zr   0.14350   0.62161   0.60483   1.000
    Zr50    Zr   0.64351   0.12161   0.60483   1.000
    Zr51    Zr   0.64351   0.62161   0.60483   1.000
    Zr52    Zr   0.43614   0.09720   0.55728   1.000
    Zr53    Zr   0.43614   0.59720   0.55728   1.000
    Zr54    Zr   0.93616   0.09720   0.55728   1.000
    Zr55    Zr   0.93615   0.59721   0.55728   1.000
    Zr56    Zr   0.14345   0.12839   0.10484   1.000
    Zr57    Zr   0.14346   0.62840   0.10484   1.000
    Zr58    Zr   0.64347   0.12839   0.10484   1.000
    Zr59    Zr   0.64347   0.62839   0.10484   1.000
    Zr60    Zr   0.43609   0.15279   0.05730   1.000
    Zr61    Zr   0.43610   0.65280   0.05729   1.000
    Zr62    Zr   0.93610   0.15280   0.05730   1.000
    Zr63    Zr   0.93611   0.65280   0.05729   1.000
    Zr64    Zr   0.35669   0.37841   0.39515   1.000
    Zr65    Zr   0.35672   0.87841   0.39515   1.000
    Zr66    Zr   0.85671   0.37841   0.39515   1.000
    Zr67    Zr   0.85674   0.87842   0.39515   1.000
    Zr68    Zr   0.06408   0.40279   0.44268   1.000
    Zr69    Zr   0.06411   0.90280   0.44268   1.000
    Zr70    Zr   0.56409   0.40279   0.44268   1.000
    Zr71    Zr   0.56412   0.90279   0.44268   1.000
    O72     O    0.96807   0.20140   0.02865   1.000
    O73     O    0.03202   0.29860   0.97134   1.000
    O74     O    0.46807   0.20140   0.02865   1.000
    O75     O    0.53203   0.29860   0.97134   1.000
    O76     O    0.96805   0.63413   0.07297   1.000
    O77     O    0.96808   0.70140   0.02864   1.000
    O78     O    0.47463   0.63413   0.07297   1.000
    O79     O    0.46808   0.70140   0.02864   1.000
    O80     O    0.96805   0.13413   0.07297   1.000
    O81     O    0.47463   0.13413   0.07297   1.000
    O82     O    0.57832   0.62193   0.09674   1.000
    O83     O    0.07173   0.62193   0.09674   1.000
    O84     O    0.57832   0.12192   0.09674   1.000
    O85     O    0.07173   0.12192   0.09674   1.000
    O86     O    0.15795   0.15249   0.09701   1.000
    O87     O    0.15796   0.65249   0.09701   1.000
    O88     O    0.65797   0.15249   0.09701   1.000
    O89     O    0.65797   0.65249   0.09701   1.000
    O90     O    0.34219   0.40251   0.40298   1.000
    O91     O    0.42184   0.37194   0.40324   1.000
    O92     O    0.34222   0.90251   0.40298   1.000
    O93     O    0.42187   0.87194   0.40324   1.000
    O94     O    0.84221   0.40251   0.40298   1.000
    O95     O    0.92184   0.37194   0.40324   1.000
    O96     O    0.84223   0.90251   0.40298   1.000
    O97     O    0.92187   0.87194   0.40324   1.000
    O98     O    0.52554   0.38413   0.42701   1.000
    O99     O    0.02553   0.38413   0.42701   1.000
    O100    O    0.02556   0.88413   0.42701   1.000
    O101    O    0.52557   0.88413   0.42701   1.000
    O102    O    0.03208   0.45139   0.47134   1.000
    O103    O    0.03210   0.95139   0.47134   1.000
    O104    O    0.53209   0.45139   0.47134   1.000
    O105    O    0.53211   0.95139   0.47134   1.000
    O106    O    0.96812   0.54860   0.52863   1.000
    O107    O    0.96812   0.04860   0.52863   1.000
    O108    O    0.46812   0.04860   0.52863   1.000
    O109    O    0.46812   0.54860   0.52863   1.000
    O110    O    0.47467   0.11587   0.57295   1.000
    O111    O    0.47467   0.61587   0.57295   1.000
    O112    O    0.96808   0.11587   0.57295   1.000
    O113    O    0.96808   0.61587   0.57295   1.000
    O114    O    0.07175   0.12807   0.59673   1.000
    O115    O    0.57836   0.62808   0.59673   1.000
    O116    O    0.57835   0.12807   0.59673   1.000
    O117    O    0.07175   0.62808   0.59673   1.000
    O118    O    0.65801   0.59751   0.59700   1.000
    O119    O    0.65801   0.09751   0.59700   1.000
    O120    O    0.15800   0.59752   0.59700   1.000
    O121    O    0.15800   0.09751   0.59700   1.000
    O122    O    0.34213   0.34750   0.90297   1.000
    O123    O    0.42178   0.37807   0.90324   1.000
    O124    O    0.84215   0.84750   0.90297   1.000
    O125    O    0.92179   0.87807   0.90324   1.000
    O126    O    0.84214   0.34750   0.90297   1.000
    O127    O    0.92178   0.37807   0.90324   1.000
    O128    O    0.34214   0.84751   0.90297   1.000
    O129    O    0.42179   0.87807   0.90324   1.000
    O130    O    0.02547   0.86587   0.92700   1.000
    O131    O    0.02546   0.36587   0.92700   1.000
    O132    O    0.52547   0.36587   0.92700   1.000
    O133    O    0.52548   0.86587   0.92700   1.000
    O134    O    0.53204   0.79861   0.97133   1.000
    O135    O    0.03203   0.79861   0.97133   1.000
    N136    N    0.92160   0.28147   0.28375   1.000
    O137    O    0.96875   0.30673   0.34179   1.000
    N138    N    0.92161   0.96821   0.78379   1.000
    O139    O    0.96873   0.94311   0.84180   1.000
    N140    N    0.42159   0.46853   0.78377   1.000
    O141    O    0.46872   0.44327   0.84172   1.000
    N142    N    0.07850   0.21853   0.71616   1.000
    O143    O    0.02808   0.19327   0.65815   1.000
    N144    N    0.92160   0.46853   0.78377   1.000
    O145    O    0.96872   0.44327   0.84172   1.000
    N146    N    0.57851   0.21853   0.71616   1.000
    O147    O    0.53138   0.19327   0.65814   1.000
    N148    N    0.42160   0.96821   0.78379   1.000
    O149    O    0.46873   0.94311   0.84180   1.000
    N150    N    0.72059   0.83097   0.07879   1.000
    O151    O    0.65712   0.78969   0.05611   1.000
    O152    O    0.83919   0.81264   0.05375   1.000
    N153    N    0.22063   0.91839   0.57888   1.000
    O154    O    0.15716   0.95919   0.55616   1.000
    O155    O    0.33924   0.93704   0.55379   1.000
    N156    N    0.57852   0.03147   0.21617   1.000
    O157    O    0.53137   0.05673   0.15816   1.000
    N158    N    0.27953   0.58097   0.42107   1.000
    O159    O    0.34301   0.53969   0.44381   1.000
    O160    O    0.16092   0.56264   0.44617   1.000
    N161    N    0.07851   0.71853   0.71616   1.000
    O162    O    0.02809   0.69327   0.65815   1.000
    N163    N    0.57852   0.71853   0.71616   1.000
    O164    O    0.53139   0.69327   0.65815   1.000
    N165    N    0.42160   0.78148   0.28381   1.000
    O166    O    0.46877   0.80674   0.34181   1.000
    N167    N    0.77954   0.08097   0.42106   1.000
    O168    O    0.66094   0.06263   0.44617   1.000
    O169    O    0.84302   0.03969   0.44380   1.000
    N170    N    0.27950   0.66903   0.92107   1.000
    O171    O    0.34298   0.71031   0.94380   1.000
    O172    O    0.16090   0.68737   0.94617   1.000
    N173    N    0.27949   0.16902   0.92106   1.000
    O174    O    0.16089   0.18736   0.94617   1.000
    O175    O    0.34297   0.21031   0.94380   1.000
    N176    N    0.72065   0.91839   0.57890   1.000
    O177    O    0.65717   0.95919   0.55617   1.000
    O178    O    0.83925   0.93704   0.55380   1.000
    N179    N    0.27953   0.08097   0.42107   1.000
    O180    O    0.16093   0.06263   0.44617   1.000
    O181    O    0.34301   0.03969   0.44381   1.000
    N182    N    0.57851   0.53147   0.21617   1.000
    O183    O    0.53137   0.55673   0.15816   1.000
    N184    N    0.07851   0.03147   0.21616   1.000
    O185    O    0.02808   0.05673   0.15816   1.000
    N186    N    0.77951   0.66903   0.92107   1.000
    O187    O    0.84298   0.71031   0.94380   1.000
    O188    O    0.66091   0.68737   0.94617   1.000
    N189    N    0.72063   0.41903   0.57888   1.000
    O190    O    0.65716   0.46031   0.55616   1.000
    O191    O    0.83923   0.43736   0.55379   1.000
    N192    N    0.77950   0.16903   0.92106   1.000
    O193    O    0.84297   0.21031   0.94380   1.000
    O194    O    0.66090   0.18736   0.94617   1.000
    N195    N    0.72058   0.33097   0.07879   1.000
    O196    O    0.65711   0.28969   0.05612   1.000
    O197    O    0.83919   0.31263   0.05375   1.000
    N198    N    0.07850   0.53147   0.21616   1.000
    O199    O    0.02808   0.55673   0.15816   1.000
    N200    N    0.92161   0.78148   0.28375   1.000
    O201    O    0.96877   0.80674   0.34179   1.000
    N202    N    0.42159   0.28147   0.28375   1.000
    O203    O    0.46875   0.30673   0.34178   1.000
    N204    N    0.22057   0.33097   0.07879   1.000
    O205    O    0.15710   0.28969   0.05612   1.000
    O206    O    0.33918   0.31263   0.05375   1.000
    N207    N    0.22061   0.41903   0.57890   1.000
    O208    O    0.15715   0.46031   0.55617   1.000
    O209    O    0.33922   0.43736   0.55380   1.000
    N210    N    0.77954   0.58097   0.42106   1.000
    O211    O    0.84301   0.53969   0.44380   1.000
    O212    O    0.66094   0.56264   0.44617   1.000
    N213    N    0.22057   0.83097   0.07890   1.000
    O214    O    0.15711   0.78969   0.05617   1.000
    O215    O    0.33919   0.81264   0.05380   1.000
loop_
    _geom_bond_atom_site_label_1
    _geom_bond_atom_site_label_2
    _geom_bond_distance
    _geom_bond_site_symmetry_2
    _ccdc_geom_bond_type
    Zr4    O72       1.20576  1_455   S
    Zr62   O72       1.20576      .   S
    Zr4    O73       1.20589  1_554   S
    Zr44   O73       1.20589      .   S
    Zr6    O74       1.20581      .   S
    Zr60   O74       1.20581      .   S
    Zr6    O75       1.20589  1_554   S
    Zr46   O75       1.20589      .   S
    Zr63   O76       0.58714      .   S
    Zr35   O76       0.58714  1_455   S
    Zr63   O77       1.20579      .   S
    Zr5    O77       1.20579  1_456   S
    Zr61   O78       0.62068      .   S
    Zr33   O78       0.62068      .   S
    Zr61   O79       1.20584      .   S
    Zr7    O79       1.20584  1_556   S
    Zr62   O80       0.58713      .   S
    Zr34   O80       0.58713  1_455   S
    Zr60   O81       0.62065      .   S
    Zr32   O81       0.62065      .   S
    Zr33   O82       0.65716      .   S
    Zr59   O82       0.65716      .   S
    Zr35   O83       0.71711      .   S
    Zr57   O83       0.71711      .   S
    Zr32   O84       0.65715      .   S
    Zr58   O84       0.65715      .   S
    Zr34   O85       0.71709      .   S
    Zr56   O85       0.71709      .   S
    Zr16   O86       0.52552      .   S
    Zr56   O86       0.52552      .   S
    Zr17   O87       0.52552      .   S
    Zr57   O87       0.52552      .   S
    Zr18   O88       0.52552      .   S
    Zr58   O88       0.52552      .   S
    Zr19   O89       0.52552      .   S
    Zr59   O89       0.52552      .   S
    Zr64   O90       0.52548      .   S
    Zr20   O90       0.52548      .   S
    Zr64   O91       0.65714      .   S
    Zr38   O91       0.65714      .   S
    Zr65   O92       0.52549      .   S
    Zr21   O92       0.52549      .   S
    Zr65   O93       0.65714      .   S
    Zr39   O93       0.65714      .   S
    Zr66   O94       0.52548      .   S
    Zr22   O94       0.52548      .   S
    Zr66   O95       0.65702      .   S
    Zr36   O95       0.65702      .   S
    Zr67   O96       0.52548      .   S
    Zr23   O96       0.52548      .   S
    Zr67   O97       0.65702      .   S
    Zr37   O97       0.65702      .   S
    Zr38   O98       0.62068      .   S
    Zr70   O98       0.62068      .   S
    Zr36   O99       0.62069  1_655   S
    Zr68   O99       0.62069      .   S
    Zr37   O100      0.62069  1_655   S
    Zr69   O100      0.62069      .   S
    Zr39   O101      0.62068      .   S
    Zr71   O101      0.62068      .   S
    Zr68   O102      1.20592      .   S
    Zr1    O102      1.20592      .   S
    Zr69   O103      1.20590      .   S
    Zr0    O103      1.20590      .   S
    Zr70   O104      1.20592      .   S
    Zr3    O104      1.20592      .   S
    Zr71   O105      1.20591      .   S
    Zr2    O105      1.20591      .   S
    Zr1    O106      1.20574  1_455   S
    Zr55   O106      1.20574      .   S
    Zr0    O107      1.20574  1_465   S
    Zr54   O107      1.20574      .   S
    Zr2    O108      1.20577  1_565   S
    Zr52   O108      1.20577      .   S
    Zr3    O109      1.20577      .   S
    Zr53   O109      1.20577      .   S
    Zr52   O110      0.62069      .   S
    Zr28   O110      0.62069      .   S
    Zr53   O111      0.62071      .   S
    Zr29   O111      0.62071      .   S
    Zr54   O112      0.58709      .   S
    Zr30   O112      0.58709  1_455   S
    Zr55   O113      0.58709      .   S
    Zr31   O113      0.58709  1_455   S
    Zr30   O114      0.71727      .   S
    Zr48   O114      0.71727      .   S
    Zr29   O115      0.65715      .   S
    Zr51   O115      0.65715      .   S
    Zr28   O116      0.65715      .   S
    Zr50   O116      0.65715      .   S
    Zr31   O117      0.71727      .   S
    Zr49   O117      0.71727      .   S
    Zr15   O118      0.52552      .   S
    Zr51   O118      0.52552      .   S
    Zr14   O119      0.52551      .   S
    Zr50   O119      0.52551      .   S
    Zr13   O120      0.52551      .   S
    Zr49   O120      0.52551      .   S
    Zr12   O121      0.52551      .   S
    Zr48   O121      0.52551      .   S
    Zr40   O122      0.52548      .   S
    Zr8    O122      0.52548      .   S
    Zr40   O123      0.65713      .   S
    Zr26   O123      0.65713      .   S
    Zr43   O124      0.52549      .   S
    Zr11   O124      0.52549      .   S
    Zr43   O125      0.65702      .   S
    Zr25   O125      0.65702      .   S
    Zr42   O126      0.52548      .   S
    Zr10   O126      0.52548      .   S
    Zr42   O127      0.65703      .   S
    Zr24   O127      0.65703      .   S
    Zr41   O128      0.52549      .   S
    Zr9    O128      0.52549      .   S
    Zr41   O129      0.65713      .   S
    Zr27   O129      0.65713      .   S
    Zr25   O130      0.62074  1_655   S
    Zr45   O130      0.62074      .   S
    Zr24   O131      0.62070  1_655   S
    Zr44   O131      0.62070      .   S
    Zr26   O132      0.62070      .   S
    Zr46   O132      0.62070      .   S
    Zr27   O133      0.62073      .   S
    Zr47   O133      0.62073      .   S
    Zr47   O134      1.20580      .   S
    Zr7    O134      1.20580      .   S
    Zr45   O135      1.20581      .   S
    Zr5    O135      1.20581      .   S
    N136   O137      1.47106      .   S
    Zr36   O137      1.96890      .   S
    N138   O139      1.46948      .   S
    Zr25   O139      1.96651      .   S
    N140   O141      1.46920      .   S
    Zr26   O141      1.96989      .   S
    N142   O143      1.47885      .   S
    Zr30   O143      1.97442      .   S
    N144   O145      1.46916      .   S
    Zr24   O145      1.96987      .   S
    N146   O147      1.47074      .   S
    Zr28   O147      1.96794      .   S
    N148   O149      1.46946      .   S
    Zr27   O149      1.96646      .   S
    N150   O151      1.12184      .   S
    Zr7    O151      2.08177  1_556   S
    N150   O152      1.35936      .   S
    Zr5    O152      2.37939  1_456   S
    N153   O154      1.11561      .   S
    Zr0    O154      2.09058      .   S
    N153   O155      1.36159      .   S
    Zr2    O155      2.38314      .   S
    N156   O157      1.47039      .   S
    Zr32   O157      1.96823      .   S
    N158   O159      1.12252      .   S
    Zr3    O159      2.08271      .   S
    N158   O160      1.36001      .   S
    Zr1    O160      2.38016      .   S
    N161   O162      1.47889      .   S
    Zr31   O162      1.97447      .   S
    N163   O164      1.47046      .   S
    Zr29   O164      1.96826      .   S
    N165   O166      1.47053      .   S
    Zr39   O166      1.96838      .   S
    N167   O168      1.36010      .   S
    Zr2    O168      2.38026  1_565   S
    N167   O169      1.12258      .   S
    Zr0    O169      2.08273  1_465   S
    N170   O171      1.12256      .   S
    Zr7    O171      2.08282      .   S
    N170   O172      1.36005      .   S
    Zr5    O172      2.38032      .   S
    N173   O174      1.36013      .   S
    Zr4    O174      2.38049  1_554   S
    N173   O175      1.12263      .   S
    Zr6    O175      2.08299  1_554   S
    N176   O177      1.11571      .   S
    Zr2    O177      2.09072      .   S
    N176   O178      1.36162      .   S
    Zr0    O178      2.38318  1_455   S
    N179   O180      1.36000      .   S
    Zr0    O180      2.38014  1_565   S
    N179   O181      1.12253      .   S
    Zr2    O181      2.08275  1_565   S
    N182   O183      1.47038      .   S
    Zr33   O183      1.96822      .   S
    N184   O185      1.47866      .   S
    Zr34   O185      1.97431      .   S
    N186   O187      1.12252      .   S
    Zr5    O187      2.08268  1_455   S
    N186   O188      1.36005      .   S
    Zr7    O188      2.38033      .   S
    N189   O190      1.12231      .   S
    Zr3    O190      2.08232      .   S
    N189   O191      1.35991      .   S
    Zr1    O191      2.37990  1_455   S
    N192   O193      1.12260      .   S
    Zr4    O193      2.08286  1_454   S
    N192   O194      1.36013      .   S
    Zr6    O194      2.38048  1_554   S
    N195   O196      1.12182      .   S
    Zr6    O196      2.08168      .   S
    N195   O197      1.35932      .   S
    Zr4    O197      2.37929  1_455   S
    N198   O199      1.47867      .   S
    Zr35   O199      1.97432      .   S
    N200   O201      1.47105      .   S
    Zr37   O201      1.96888      .   S
    N202   O203      1.47110      .   S
    Zr38   O203      1.96891      .   S
    N204   O205      1.12182      .   S
    Zr4    O205      2.08168      .   S
    N204   O206      1.35939      .   S
    Zr6    O206      2.37941      .   S
    N207   O208      1.12239      .   S
    Zr1    O208      2.08243      .   S
    N207   O209      1.36006      .   S
    Zr3    O209      2.38014      .   S
    N210   O211      1.12257      .   S
    Zr1    O211      2.08270  1_455   S
    N210   O212      1.36011      .   S
    Zr3    O212      2.38028      .   S
    N213   O214      1.12243      .   S
    Zr5    O214      2.08256  1_556   S
    N213   O215      1.36006      .   S
    Zr7    O215      2.38028  1_556   S
