# CIF file generated by openbabel 2.4.90, see http://openbabel.sf.net
data_I
_chemical_name_common ''
_cell_length_a 17.202
_cell_length_b 18.548
_cell_length_c 18.556
_cell_angle_alpha 77.633
_cell_angle_beta 62.433
_cell_angle_gamma 62.424
_space_group_name_H-M_alt 'P 1'
_space_group_name_Hall 'P 1'
loop_
    _symmetry_equiv_pos_as_xyz
    x,y,z
loop_
    _atom_site_label
    _atom_site_type_symbol
    _atom_site_fract_x
    _atom_site_fract_y
    _atom_site_fract_z
    _atom_site_occupancy
    Zr0     Zr   0.31230   0.37526   0.37520   1.000
    Zr1     Zr   0.31230   0.37526   0.87521   1.000
    Zr2     Zr   0.31230   0.87525   0.37522   1.000
    Zr3     Zr   0.31230   0.87525   0.87521   1.000
    Zr4     Zr   0.81231   0.37526   0.37522   1.000
    Zr5     Zr   0.81231   0.37526   0.87521   1.000
    Zr6     Zr   0.81231   0.87525   0.37522   1.000
    Zr7     Zr   0.81231   0.87525   0.87521   1.000
    Zr8     Zr   0.18761   0.12495   0.12490   1.000
    Zr9     Zr   0.18761   0.12495   0.62488   1.000
    Zr10    Zr   0.18761   0.62494   0.12490   1.000
    Zr11    Zr   0.18761   0.62494   0.62488   1.000
    Zr12    Zr   0.68762   0.12495   0.12490   1.000
    Zr13    Zr   0.68762   0.12495   0.62488   1.000
    Zr14    Zr   0.68762   0.62494   0.12490   1.000
    Zr15    Zr   0.68762   0.62494   0.62488   1.000
    Zr16    Zr   0.06251   0.37504   0.37499   1.000
    Zr17    Zr   0.06251   0.37504   0.87490   1.000
    Zr18    Zr   0.06251   0.87503   0.37499   1.000
    Zr19    Zr   0.06251   0.87503   0.87497   1.000
    Zr20    Zr   0.56252   0.37504   0.37499   1.000
    Zr21    Zr   0.56252   0.37504   0.87497   1.000
    Zr22    Zr   0.56252   0.87503   0.37490   1.000
    Zr23    Zr   0.56252   0.87503   0.87497   1.000
    Zr24    Zr   0.43740   0.12516   0.12513   1.000
    Zr25    Zr   0.43740   0.12516   0.62512   1.000
    Zr26    Zr   0.43740   0.62516   0.12513   1.000
    Zr27    Zr   0.43740   0.62516   0.62512   1.000
    Zr28    Zr   0.93741   0.12516   0.12513   1.000
    Zr29    Zr   0.93741   0.12517   0.62512   1.000
    Zr30    Zr   0.93741   0.62516   0.12513   1.000
    Zr31    Zr   0.93741   0.62516   0.62512   1.000
    N32     N    0.99997   0.50009   0.75004   1.000
    O33     O    0.05965   0.54762   0.70246   1.000
    O34     O    0.94029   0.45257   0.79761   1.000
    N35     N    0.99997   0.75009   0.00004   1.000
    O36     O    0.05964   0.70253   0.04758   1.000
    O37     O    0.94030   0.79765   0.95251   1.000
    N38     N    0.49995   0.00010   0.00006   1.000
    O39     O    0.60712   0.95261   0.95255   1.000
    O40     O    0.39279   0.04759   0.04756   1.000
    N41     N    0.74997   0.75010   0.25006   1.000
    O42     O    0.76202   0.79769   0.29767   1.000
    O43     O    0.73792   0.70250   0.20246   1.000
    N44     N    0.49995   0.50010   0.50006   1.000
    O45     O    0.39279   0.54759   0.54756   1.000
    O46     O    0.60711   0.45261   0.45256   1.000
    N47     N    0.99995   0.00010   0.50005   1.000
    O48     O    0.10711   0.95261   0.45255   1.000
    O49     O    0.89280   0.04760   0.54755   1.000
    N50     N    0.49996   0.25010   0.00004   1.000
    O51     O    0.44029   0.29766   0.95250   1.000
    O52     O    0.55964   0.20254   0.04758   1.000
    N53     N    0.99996   0.25010   0.00005   1.000
    O54     O    0.94029   0.29766   0.95252   1.000
    O55     O    0.05963   0.20254   0.04759   1.000
    N56     N    0.49997   0.50009   0.75002   1.000
    O57     O    0.55965   0.54762   0.70245   1.000
    O58     O    0.44028   0.45257   0.79760   1.000
    N59     N    0.74997   0.75010   0.75005   1.000
    O60     O    0.76203   0.79769   0.79766   1.000
    O61     O    0.73792   0.70250   0.70244   1.000
    N62     N    0.99997   0.50009   0.25005   1.000
    O63     O    0.05965   0.54761   0.20248   1.000
    O64     O    0.94029   0.45257   0.29763   1.000
    N65     N    0.24996   0.25010   0.25007   1.000
    O66     O    0.23790   0.20250   0.20246   1.000
    O67     O    0.26201   0.29770   0.29767   1.000
    N68     N    0.99997   0.00009   0.25005   1.000
    O69     O    0.94029   0.95256   0.29763   1.000
    O70     O    0.05965   0.04762   0.20248   1.000
    N71     N    0.49997   0.00009   0.25005   1.000
    O72     O    0.55965   0.04762   0.20248   1.000
    O73     O    0.44028   0.95257   0.29763   1.000
    N74     N    0.24996   0.75010   0.75004   1.000
    O75     O    0.26201   0.79769   0.79765   1.000
    O76     O    0.23791   0.70250   0.70244   1.000
    N77     N    0.99995   0.00010   0.00006   1.000
    O78     O    0.10711   0.95261   0.95255   1.000
    O79     O    0.89280   0.04759   0.04756   1.000
    N80     N    0.49997   0.75009   0.00003   1.000
    O81     O    0.55964   0.70253   0.04758   1.000
    O82     O    0.44029   0.79765   0.95250   1.000
    N83     N    0.99997   0.75009   0.50003   1.000
    O84     O    0.94030   0.79765   0.45251   1.000
    O85     O    0.05964   0.70253   0.54757   1.000
    N86     N    0.99995   0.50010   0.50004   1.000
    O87     O    0.10711   0.45261   0.45254   1.000
    O88     O    0.89280   0.54759   0.54755   1.000
    N89     N    0.74997   0.25010   0.25007   1.000
    O90     O    0.73791   0.20250   0.20246   1.000
    O91     O    0.76202   0.29770   0.29767   1.000
    N92     N    0.99997   0.00009   0.75004   1.000
    O93     O    0.05965   0.04762   0.70247   1.000
    O94     O    0.94029   0.95257   0.79761   1.000
    N95     N    0.49995   0.00010   0.50005   1.000
    O96     O    0.39279   0.04760   0.54755   1.000
    O97     O    0.60712   0.95261   0.45255   1.000
    N98     N    0.49995   0.50010   0.00006   1.000
    O99     O    0.39279   0.54759   0.04757   1.000
    O100    O    0.60712   0.45261   0.95255   1.000
    N101    N    0.49996   0.25010   0.50005   1.000
    O102    O    0.44029   0.29766   0.45252   1.000
    O103    O    0.55964   0.20254   0.54758   1.000
    N104    N    0.99995   0.50010   0.00004   1.000
    O105    O    0.89280   0.54759   0.04754   1.000
    O106    O    0.10711   0.45261   0.95254   1.000
    N107    N    0.49997   0.00009   0.75004   1.000
    O108    O    0.44029   0.95256   0.79762   1.000
    O109    O    0.55965   0.04762   0.70247   1.000
    N110    N    0.49997   0.50009   0.25005   1.000
    O111    O    0.44028   0.45257   0.29762   1.000
    O112    O    0.55965   0.54761   0.20248   1.000
    N113    N    0.74997   0.25010   0.75005   1.000
    O114    O    0.76202   0.29770   0.79766   1.000
    O115    O    0.73791   0.20250   0.70244   1.000
    N116    N    0.24996   0.25010   0.75004   1.000
    O117    O    0.26201   0.29770   0.79765   1.000
    O118    O    0.23790   0.20250   0.70244   1.000
    N119    N    0.24996   0.75009   0.25006   1.000
    O120    O    0.23791   0.70250   0.20246   1.000
    O121    O    0.26201   0.79769   0.29767   1.000
    N122    N    0.49997   0.75009   0.50004   1.000
    O123    O    0.55964   0.70253   0.54758   1.000
    O124    O    0.44029   0.79765   0.45252   1.000
    N125    N    0.99996   0.25010   0.50004   1.000
    O126    O    0.94029   0.29766   0.45252   1.000
    O127    O    0.05963   0.20254   0.54757   1.000
    O128    O    0.47848   0.54279   0.04276   1.000
    O129    O    0.52143   0.45741   0.95735   1.000
    O130    O    0.52123   0.79273   0.95732   1.000
    O131    O    0.47871   0.70745   0.04276   1.000
    O132    O    0.31384   0.20745   0.70739   1.000
    O133    O    0.47871   0.04280   0.70740   1.000
    O134    O    0.47848   0.04279   0.54275   1.000
    O135    O    0.47870   0.20746   0.54277   1.000
    O136    O    0.47871   0.70746   0.54276   1.000
    O137    O    0.31384   0.70745   0.70739   1.000
    O138    O    0.47848   0.54279   0.54276   1.000
    O139    O    0.47871   0.54280   0.70739   1.000
    O140    O    0.52123   0.95738   0.79268   1.000
    O141    O    0.68609   0.79275   0.79270   1.000
    O142    O    0.52143   0.95741   0.95735   1.000
    O143    O    0.81385   0.20745   0.20742   1.000
    O144    O    0.97848   0.04279   0.04276   1.000
    O145    O    0.97870   0.20746   0.04277   1.000
    O146    O    0.97871   0.04280   0.20741   1.000
    O147    O    0.47871   0.54280   0.20742   1.000
    O148    O    0.52123   0.45738   0.29269   1.000
    O149    O    0.02142   0.45741   0.95732   1.000
    O150    O    0.18607   0.29275   0.79268   1.000
    O151    O    0.02122   0.29274   0.95731   1.000
    O152    O    0.02122   0.45739   0.79266   1.000
    O153    O    0.02122   0.95739   0.79268   1.000
    O154    O    0.18608   0.79275   0.79270   1.000
    O155    O    0.02142   0.95741   0.95735   1.000
    O156    O    0.02123   0.79273   0.95733   1.000
    O157    O    0.97849   0.54279   0.04274   1.000
    O158    O    0.81385   0.70744   0.20741   1.000
    O159    O    0.97871   0.70746   0.04277   1.000
    O160    O    0.97871   0.54280   0.20742   1.000
    O161    O    0.52123   0.79273   0.45731   1.000
    O162    O    0.52143   0.95741   0.45733   1.000
    O163    O    0.68609   0.79275   0.29269   1.000
    O164    O    0.52123   0.95738   0.29267   1.000
    O165    O    0.02122   0.29274   0.45734   1.000
    O166    O    0.97870   0.20747   0.54276   1.000
    O167    O    0.97871   0.04280   0.70740   1.000
    O168    O    0.68608   0.29275   0.29272   1.000
    O169    O    0.31384   0.70744   0.20741   1.000
    O170    O    0.18608   0.79275   0.29271   1.000
    O171    O    0.02123   0.79273   0.45733   1.000
    O172    O    0.02142   0.95741   0.45735   1.000
    O173    O    0.02122   0.95738   0.29269   1.000
    O174    O    0.02142   0.45741   0.45734   1.000
    O175    O    0.02122   0.45739   0.29269   1.000
    O176    O    0.18607   0.29275   0.29272   1.000
    O177    O    0.52143   0.45741   0.45736   1.000
    O178    O    0.52122   0.29274   0.45734   1.000
    O179    O    0.52122   0.29274   0.95732   1.000
    O180    O    0.52123   0.45739   0.79266   1.000
    O181    O    0.68608   0.29275   0.79270   1.000
    O182    O    0.97849   0.04280   0.54275   1.000
    O183    O    0.81385   0.20745   0.70740   1.000
    O184    O    0.97849   0.54279   0.54275   1.000
    O185    O    0.97871   0.70746   0.54275   1.000
    O186    O    0.81385   0.70744   0.70740   1.000
    O187    O    0.97871   0.54280   0.70740   1.000
    O188    O    0.47870   0.20747   0.04277   1.000
    O189    O    0.47848   0.04279   0.04276   1.000
    O190    O    0.31384   0.20745   0.20741   1.000
    O191    O    0.47871   0.04280   0.20741   1.000
loop_
    _geom_bond_atom_site_label_1
    _geom_bond_atom_site_label_2
    _geom_bond_distance
    _geom_bond_site_symmetry_2
    _ccdc_geom_bond_type
    N32    O33       1.50860  1_655   S
    Zr11   O33       2.84261      .   S
    N32    O34       1.50860      .   S
    Zr5    O34       2.84262      .   S
    N35    O36       1.50874  1_655   S
    Zr10   O36       2.84274      .   S
    N35    O37       1.50871  1_554   S
    Zr7    O37       2.84272      .   S
    N38    O39       1.50878  1_544   S
    Zr7    O39       2.84286      .   S
    N38    O40       1.50873      .   S
    Zr8    O40       2.84271      .   S
    N41    O42       1.50857      .   S
    Zr6    O42       2.84248      .   S
    N41    O43       1.50859      .   S
    Zr14   O43       2.84261      .   S
    N44    O45       1.50868      .   S
    Zr11   O45       2.84265      .   S
    N44    O46       1.50874      .   S
    Zr4    O46       2.84283      .   S
    N47    O48       1.50868  1_645   S
    Zr2    O48       2.84277      .   S
    N47    O49       1.50865      .   S
    Zr13   O49       2.84260      .   S
    N50    O51       1.50887  1_554   S
    Zr1    O51       2.84257      .   S
    N50    O52       1.50885      .   S
    Zr12   O52       2.84288      .   S
    N53    O54       1.50869  1_554   S
    Zr5    O54       2.84273      .   S
    N53    O55       1.50872  1_655   S
    Zr8    O55       2.84275      .   S
    N56    O57       1.50863      .   S
    Zr15   O57       2.84267      .   S
    N56    O58       1.50870      .   S
    Zr1    O58       2.84271      .   S
    N59    O60       1.50858      .   S
    Zr7    O60       2.84251      .   S
    N59    O61       1.50861      .   S
    Zr15   O61       2.84267      .   S
    N62    O63       1.50859  1_655   S
    Zr10   O63       2.84261      .   S
    N62    O64       1.50859      .   S
    Zr4    O64       2.84263      .   S
    N65    O66       1.50861      .   S
    Zr8    O66       2.84258      .   S
    N65    O67       1.50851      .   S
    Zr0    O67       2.84225      .   S
    N68    O69       1.50864  1_545   S
    Zr6    O69       2.84267      .   S
    N68    O70       1.50864  1_655   S
    Zr8    O70       2.84265      .   S
    N71    O72       1.50870      .   S
    Zr12   O72       2.84272      .   S
    N71    O73       1.50871  1_545   S
    Zr2    O73       2.84274      .   S
    N74    O75       1.50864      .   S
    Zr3    O75       2.84255      .   S
    N74    O76       1.50855      .   S
    Zr11   O76       2.84262      .   S
    N77    O78       1.50871  1_644   S
    Zr3    O78       2.84279      .   S
    N77    O79       1.50867      .   S
    Zr12   O79       2.84263      .   S
    N80    O81       1.50889      .   S
    Zr14   O81       2.84289      .   S
    N80    O82       1.50870  1_554   S
    Zr3    O82       2.84271      .   S
    N83    O84       1.50847      .   S
    Zr6    O84       2.84255      .   S
    N83    O85       1.50875  1_655   S
    Zr11   O85       2.84274      .   S
    N86    O87       1.50868  1_655   S
    Zr0    O87       2.84275      .   S
    N86    O88       1.50864      .   S
    Zr15   O88       2.84259      .   S
    N89    O90       1.50859      .   S
    Zr12   O90       2.84260      .   S
    N89    O91       1.50857      .   S
    Zr4    O91       2.84247      .   S
    N92    O93       1.50864  1_655   S
    Zr9    O93       2.84265      .   S
    N92    O94       1.50865  1_545   S
    Zr7    O94       2.84268      .   S
    N95    O96       1.50872      .   S
    Zr9    O96       2.84268      .   S
    N95    O97       1.50874  1_545   S
    Zr6    O97       2.84284      .   S
    N98    O99       1.50872      .   S
    Zr10   O99       2.84267      .   S
    N98    O100      1.50876  1_554   S
    Zr5    O100      2.84284      .   S
    N101   O102      1.50878      .   S
    Zr0    O102      2.84297      .   S
    N101   O103      1.50868      .   S
    Zr13   O103      2.84264      .   S
    N104   O105      1.50864      .   S
    Zr14   O105      2.84261      .   S
    N104   O106      1.50867  1_654   S
    Zr1    O106      2.84276      .   S
    N107   O108      1.50871  1_545   S
    Zr3    O108      2.84274      .   S
    N107   O109      1.50871      .   S
    Zr13   O109      2.84272      .   S
    N110   O111      1.50864      .   S
    Zr0    O111      2.84269      .   S
    N110   O112      1.50865      .   S
    Zr14   O112      2.84268      .   S
    N113   O114      1.50859      .   S
    Zr5    O114      2.84256      .   S
    N113   O115      1.50862      .   S
    Zr13   O115      2.84264      .   S
    N116   O117      1.50863      .   S
    Zr1    O117      2.84268      .   S
    N116   O118      1.50853      .   S
    Zr9    O118      2.84254      .   S
    N119   O120      1.50859      .   S
    Zr10   O120      2.84259      .   S
    N119   O121      1.50857      .   S
    Zr2    O121      2.84250      .   S
    N122   O123      1.50867      .   S
    Zr15   O123      2.84267      .   S
    N122   O124      1.50868      .   S
    Zr2    O124      2.84276      .   S
    N125   O126      1.50860      .   S
    Zr4    O126      2.84264      .   S
    N125   O127      1.50852  1_655   S
    Zr9    O127      2.84275      .   S
    N98    O128      1.05757      .   S
    Zr26   O128      2.04212      .   S
    N98    O129      1.05761  1_554   S
    Zr21   O129      2.04224      .   S
    N80    O130      1.05753  1_554   S
    Zr23   O130      2.04211      .   S
    N80    O131      1.05764      .   S
    Zr26   O131      2.04221      .   S
    Zr25   O132      2.04174      .   S
    N116   O132      1.05744      .   S
    Zr25   O133      2.04210      .   S
    N107   O133      1.05752      .   S
    Zr25   O134      2.04227      .   S
    N95    O134      1.05750      .   S
    Zr25   O135      2.04211      .   S
    N101   O135      1.05752      .   S
    Zr27   O136      2.04214      .   S
    N122   O136      1.05752      .   S
    Zr27   O137      2.04179      .   S
    N74    O137      1.05739      .   S
    Zr27   O138      2.04212      .   S
    N44    O138      1.05750      .   S
    Zr27   O139      2.04187      .   S
    N56    O139      1.05735      .   S
    Zr23   O140      2.04201      .   S
    N107   O140      1.05750  1_545   S
    Zr23   O141      2.04181      .   S
    N59    O141      1.05741      .   S
    Zr23   O142      2.04229      .   S
    N38    O142      1.05766  1_544   S
    Zr28   O143      2.04188      .   S
    N89    O143      1.05744      .   S
    Zr28   O144      2.04223      .   S
    N77    O144      1.05763      .   S
    Zr28   O145      2.04212      .   S
    N53    O145      1.05756      .   S
    Zr28   O146      2.04207      .   S
    N68    O146      1.05752      .   S
    N110   O147      1.05749      .   S
    Zr26   O147      2.04208      .   S
    N110   O148      1.05749      .   S
    Zr20   O148      2.04206      .   S
    Zr17   O149      2.04290      .   S
    N104   O149      1.05774  1_654   S
    Zr17   O150      2.04146      .   S
    N116   O150      1.05731      .   S
    Zr17   O151      2.04255      .   S
    N53    O151      1.05770  1_654   S
    Zr17   O152      2.04120      .   S
    N32    O152      1.05722  1_655   S
    Zr19   O153      2.04202      .   S
    N92    O153      1.05750  1_645   S
    Zr19   O154      2.04185      .   S
    N74    O154      1.05745      .   S
    Zr19   O155      2.04233      .   S
    N77    O155      1.05766  1_644   S
    Zr19   O156      2.04211      .   S
    N35    O156      1.05756  1_654   S
    Zr30   O157      2.04253      .   S
    N104   O157      1.05753      .   S
    Zr30   O158      2.04184      .   S
    N41    O158      1.05743      .   S
    Zr30   O159      2.04213      .   S
    N35    O159      1.05757      .   S
    Zr30   O160      2.04203      .   S
    N62    O160      1.05747      .   S
    Zr22   O161      2.04259      .   S
    N122   O161      1.05767      .   S
    Zr22   O162      2.04302      .   S
    N95    O162      1.05781  1_545   S
    Zr22   O163      2.04133      .   S
    N41    O163      1.05726      .   S
    Zr22   O164      2.04119      .   S
    N71    O164      1.05722  1_545   S
    N125   O165      1.05746  1_655   S
    Zr16   O165      2.04199      .   S
    N125   O166      1.05749      .   S
    Zr29   O166      2.04213      .   S
    N92    O167      1.05751      .   S
    Zr29   O167      2.04198      .   S
    N89    O168      1.05742      .   S
    Zr20   O168      2.04183      .   S
    Zr26   O169      2.04185      .   S
    N119   O169      1.05743      .   S
    Zr18   O170      2.04186      .   S
    N119   O170      1.05743      .   S
    Zr18   O171      2.04193      .   S
    N83    O171      1.05739  1_655   S
    Zr18   O172      2.04216      .   S
    N47    O172      1.05753  1_645   S
    Zr18   O173      2.04204      .   S
    N68    O173      1.05752  1_645   S
    Zr16   O174      2.04198      .   S
    N86    O174      1.05755  1_655   S
    Zr16   O175      2.04202      .   S
    N62    O175      1.05748  1_655   S
    Zr16   O176      2.04184      .   S
    N65    O176      1.05743      .   S
    Zr20   O177      2.04215      .   S
    N44    O177      1.05750      .   S
    Zr20   O178      2.04208      .   S
    N101   O178      1.05750      .   S
    Zr21   O179      2.04209      .   S
    N50    O179      1.05760  1_554   S
    Zr21   O180      2.04224      .   S
    N56    O180      1.05753      .   S
    Zr21   O181      2.04182      .   S
    N113   O181      1.05742      .   S
    Zr29   O182      2.04224      .   S
    N47    O182      1.05761      .   S
    Zr29   O183      2.04183      .   S
    N113   O183      1.05743      .   S
    Zr31   O184      2.04223      .   S
    N86    O184      1.05759      .   S
    Zr31   O185      2.04219      .   S
    N83    O185      1.05755      .   S
    Zr31   O186      2.04184      .   S
    N59    O186      1.05743      .   S
    Zr31   O187      2.04197      .   S
    N32    O187      1.05749      .   S
    N50    O188      1.05762      .   S
    Zr24   O188      2.04220      .   S
    N38    O189      1.05763      .   S
    Zr24   O189      2.04220      .   S
    N65    O190      1.05744      .   S
    Zr24   O190      2.04185      .   S
    N71    O191      1.05752      .   S
    Zr24   O191      2.04209      .   S
