# CIF file generated by openbabel 2.4.90, see http://openbabel.sf.net
data_I
_chemical_name_common ''
_cell_length_a 17.202
_cell_length_b 18.548
_cell_length_c 18.556
_cell_angle_alpha 77.633
_cell_angle_beta 62.433
_cell_angle_gamma 62.424
_space_group_name_H-M_alt 'P 1'
_space_group_name_Hall 'P 1'
loop_
    _symmetry_equiv_pos_as_xyz
    x,y,z
loop_
    _atom_site_label
    _atom_site_type_symbol
    _atom_site_fract_x
    _atom_site_fract_y
    _atom_site_fract_z
    _atom_site_occupancy
    C0      C    0.31230   0.37526   0.37520   1.000
    C1      C    0.31230   0.37526   0.87521   1.000
    C2      C    0.31230   0.87525   0.37522   1.000
    C3      C    0.31230   0.87525   0.87521   1.000
    C4      C    0.81231   0.37526   0.37522   1.000
    C5      C    0.81231   0.37526   0.87521   1.000
    C6      C    0.81231   0.87525   0.37522   1.000
    C7      C    0.81231   0.87525   0.87521   1.000
    C8      C    0.18761   0.12495   0.12490   1.000
    C9      C    0.18761   0.12495   0.62488   1.000
    C10     C    0.18761   0.62494   0.12490   1.000
    C11     C    0.18761   0.62494   0.62488   1.000
    C12     C    0.68762   0.12495   0.12490   1.000
    C13     C    0.68762   0.12495   0.62488   1.000
    C14     C    0.68762   0.62494   0.12490   1.000
    C15     C    0.68762   0.62494   0.62488   1.000
    C16     C    0.06251   0.37504   0.37499   1.000
    C17     C    0.06251   0.37504   0.87490   1.000
    C18     C    0.06251   0.87503   0.37499   1.000
    C19     C    0.06251   0.87503   0.87497   1.000
    C20     C    0.56252   0.37504   0.37499   1.000
    C21     C    0.56252   0.37504   0.87497   1.000
    C22     C    0.56252   0.87503   0.37490   1.000
    C23     C    0.56252   0.87503   0.87497   1.000
    C24     C    0.43740   0.12516   0.12513   1.000
    C25     C    0.43740   0.12516   0.62512   1.000
    C26     C    0.43740   0.62516   0.12513   1.000
    C27     C    0.43740   0.62516   0.62512   1.000
    C28     C    0.93741   0.12516   0.12513   1.000
    C29     C    0.93741   0.12517   0.62512   1.000
    C30     C    0.93741   0.62516   0.12513   1.000
    C31     C    0.93741   0.62516   0.62512   1.000
    C32     C    0.28121   0.26119   0.26117   1.000
    C33     C    0.28121   0.26120   0.76116   1.000
    C34     C    0.28122   0.76119   0.26117   1.000
    C35     C    0.28122   0.76119   0.76110   1.000
    C36     C    0.78122   0.26119   0.26118   1.000
    C37     C    0.78122   0.26120   0.76116   1.000
    C38     C    0.78123   0.76119   0.26117   1.000
    C39     C    0.78123   0.76119   0.76116   1.000
    C40     C    0.05332   0.48909   0.48903   1.000
    C41     C    0.05332   0.48909   0.98902   1.000
    C42     C    0.05332   0.98908   0.48900   1.000
    C43     C    0.05332   0.98909   0.98902   1.000
    C44     C    0.55333   0.48909   0.48903   1.000
    C45     C    0.55333   0.48909   0.98902   1.000
    C46     C    0.55333   0.98908   0.48904   1.000
    C47     C    0.55333   0.98909   0.98902   1.000
    C48     C    0.04231   0.23904   0.01110   1.000
    C49     C    0.04232   0.23905   0.51110   1.000
    C50     C    0.04232   0.73903   0.01111   1.000
    C51     C    0.04232   0.73903   0.51100   1.000
    C52     C    0.54233   0.23905   0.01111   1.000
    C53     C    0.54233   0.23904   0.51110   1.000
    C54     C    0.54233   0.73903   0.01111   1.000
    C55     C    0.54233   0.73904   0.51109   1.000
    C56     C    0.04233   0.01114   0.23898   1.000
    C57     C    0.04233   0.01115   0.73897   1.000
    C58     C    0.04233   0.51113   0.23898   1.000
    C59     C    0.04233   0.51114   0.73897   1.000
    C60     C    0.54234   0.01114   0.23898   1.000
    C61     C    0.54234   0.01114   0.73897   1.000
    C62     C    0.54234   0.51113   0.23898   1.000
    C63     C    0.54234   0.51114   0.73890   1.000
    C64     C    0.21870   0.23900   0.23896   1.000
    C65     C    0.21870   0.23900   0.73895   1.000
    C66     C    0.21870   0.73900   0.23896   1.000
    C67     C    0.21870   0.73900   0.73894   1.000
    C68     C    0.71871   0.23900   0.23896   1.000
    C69     C    0.71871   0.23900   0.73895   1.000
    C70     C    0.71871   0.73900   0.23895   1.000
    C71     C    0.71871   0.73900   0.73894   1.000
    C72     C    0.44657   0.01112   0.01109   1.000
    C73     C    0.44657   0.01112   0.51108   1.000
    C74     C    0.44657   0.51111   0.01109   1.000
    C75     C    0.44657   0.51112   0.51108   1.000
    C76     C    0.94659   0.01112   0.01109   1.000
    C77     C    0.94659   0.01112   0.51108   1.000
    C78     C    0.94658   0.51111   0.01109   1.000
    C79     C    0.94659   0.51112   0.51108   1.000
    C80     C    0.45760   0.26116   0.48900   1.000
    C81     C    0.45760   0.26116   0.98899   1.000
    C82     C    0.45761   0.76115   0.48900   1.000
    C83     C    0.45761   0.76115   0.98890   1.000
    C84     C    0.95761   0.26116   0.48900   1.000
    C85     C    0.95761   0.26116   0.98899   1.000
    C86     C    0.95762   0.76114   0.48900   1.000
    C87     C    0.95762   0.76115   0.98898   1.000
    C88     C    0.45760   0.48904   0.26112   1.000
    C89     C    0.45760   0.48905   0.76111   1.000
    C90     C    0.45760   0.98904   0.26112   1.000
    C91     C    0.45760   0.98904   0.76111   1.000
    C92     C    0.95761   0.48905   0.26112   1.000
    C93     C    0.95761   0.48905   0.76111   1.000
    C94     C    0.95761   0.98904   0.26112   1.000
    C95     C    0.95761   0.98904   0.76111   1.000
    C96     C    0.23583   0.31533   0.31533   1.000
    C97     C    0.23583   0.31533   0.81530   1.000
    C98     C    0.23584   0.81533   0.31532   1.000
    C99     C    0.23584   0.81533   0.81531   1.000
    C100    C    0.73584   0.31533   0.31533   1.000
    C101    C    0.73584   0.31534   0.81531   1.000
    C102    C    0.73585   0.81533   0.31532   1.000
    C103    C    0.73585   0.81533   0.81531   1.000
    C104    C    0.09597   0.47382   0.27617   1.000
    C105    C    0.09598   0.47382   0.77616   1.000
    C106    C    0.09597   0.97382   0.27618   1.000
    C107    C    0.09597   0.97382   0.77616   1.000
    C108    C    0.59598   0.47381   0.27617   1.000
    C109    C    0.59599   0.47382   0.77610   1.000
    C110    C    0.59598   0.97382   0.27617   1.000
    C111    C    0.59598   0.97382   0.77616   1.000
    C112    C    0.11624   0.43498   0.43488   1.000
    C113    C    0.11624   0.43498   0.93487   1.000
    C114    C    0.11624   0.93497   0.43489   1.000
    C115    C    0.11624   0.93498   0.93487   1.000
    C116    C    0.61625   0.43498   0.43489   1.000
    C117    C    0.61625   0.43499   0.93487   1.000
    C118    C    0.61625   0.93497   0.43489   1.000
    C119    C    0.61625   0.93498   0.93487   1.000
    C120    C    0.09596   0.27624   0.47377   1.000
    C121    C    0.09596   0.27624   0.97376   1.000
    C122    C    0.09597   0.77622   0.47376   1.000
    C123    C    0.09597   0.77623   0.97375   1.000
    C124    C    0.59597   0.27623   0.47377   1.000
    C125    C    0.59597   0.27624   0.97375   1.000
    C126    C    0.59598   0.77622   0.47376   1.000
    C127    C    0.59598   0.77623   0.97375   1.000
    C128    C    0.05099   0.18502   0.06535   1.000
    C129    C    0.05100   0.18502   0.56530   1.000
    C130    C    0.05100   0.68501   0.06535   1.000
    C131    C    0.05100   0.68501   0.56533   1.000
    C132    C    0.55100   0.18502   0.06535   1.000
    C133    C    0.55101   0.18502   0.56534   1.000
    C134    C    0.55101   0.68501   0.06535   1.000
    C135    C    0.55101   0.68501   0.56533   1.000
    C136    C    0.37200   0.22399   0.22397   1.000
    C137    C    0.37200   0.22399   0.72390   1.000
    C138    C    0.37201   0.72399   0.22396   1.000
    C139    C    0.37201   0.72399   0.72395   1.000
    C140    C    0.87201   0.22399   0.22397   1.000
    C141    C    0.87201   0.22399   0.72395   1.000
    C142    C    0.87202   0.72399   0.22396   1.000
    C143    C    0.87202   0.72399   0.72395   1.000
    C144    C    0.05104   0.06535   0.18492   1.000
    C145    C    0.05104   0.06535   0.68491   1.000
    C146    C    0.05104   0.56534   0.18492   1.000
    C147    C    0.05104   0.56534   0.68490   1.000
    C148    C    0.55105   0.06535   0.18492   1.000
    C149    C    0.55105   0.06535   0.68491   1.000
    C150    C    0.55105   0.56534   0.18492   1.000
    C151    C    0.55105   0.56534   0.68490   1.000
    C152    C    0.06959   0.02639   0.02637   1.000
    C153    C    0.06959   0.02639   0.52635   1.000
    C154    C    0.06959   0.52638   0.02630   1.000
    C155    C    0.06959   0.52638   0.52635   1.000
    C156    C    0.56960   0.02639   0.02637   1.000
    C157    C    0.56960   0.02639   0.52630   1.000
    C158    C    0.56960   0.52638   0.02637   1.000
    C159    C    0.56960   0.52639   0.52635   1.000
    C160    C    0.26408   0.18487   0.18480   1.000
    C161    C    0.26408   0.18486   0.68479   1.000
    C162    C    0.26409   0.68486   0.18480   1.000
    C163    C    0.26409   0.68486   0.68479   1.000
    C164    C    0.76409   0.18486   0.18481   1.000
    C165    C    0.76409   0.18487   0.68479   1.000
    C166    C    0.76410   0.68486   0.18480   1.000
    C167    C    0.76410   0.68486   0.68479   1.000
    C168    C    0.40396   0.02637   0.22393   1.000
    C169    C    0.40396   0.02637   0.72392   1.000
    C170    C    0.40395   0.52637   0.22394   1.000
    C171    C    0.40395   0.52637   0.72392   1.000
    C172    C    0.90397   0.02637   0.22393   1.000
    C173    C    0.90397   0.02637   0.72390   1.000
    C174    C    0.90396   0.52637   0.22394   1.000
    C175    C    0.90396   0.52637   0.72392   1.000
    C176    C    0.38366   0.06523   0.06524   1.000
    C177    C    0.38366   0.06523   0.56523   1.000
    C178    C    0.38366   0.56522   0.06525   1.000
    C179    C    0.38366   0.56522   0.56523   1.000
    C180    C    0.88367   0.06523   0.06524   1.000
    C181    C    0.88367   0.06523   0.56523   1.000
    C182    C    0.88367   0.56522   0.06520   1.000
    C183    C    0.88367   0.56522   0.56523   1.000
    C184    C    0.40395   0.22397   0.02635   1.000
    C185    C    0.40395   0.22397   0.52634   1.000
    C186    C    0.40396   0.72395   0.02635   1.000
    C187    C    0.40395   0.72396   0.52633   1.000
    C188    C    0.90396   0.22397   0.02635   1.000
    C189    C    0.90396   0.22397   0.52634   1.000
    C190    C    0.90397   0.72396   0.02634   1.000
    C191    C    0.90397   0.72396   0.52630   1.000
    C192    C    0.44892   0.31518   0.43476   1.000
    C193    C    0.44893   0.31518   0.93470   1.000
    C194    C    0.44893   0.81517   0.43476   1.000
    C195    C    0.44893   0.81517   0.93474   1.000
    C196    C    0.94893   0.31518   0.43476   1.000
    C197    C    0.94894   0.31518   0.93475   1.000
    C198    C    0.94894   0.81517   0.43476   1.000
    C199    C    0.94894   0.81517   0.93474   1.000
    C200    C    0.12791   0.27620   0.27617   1.000
    C201    C    0.12791   0.27620   0.77615   1.000
    C202    C    0.12791   0.77620   0.27616   1.000
    C203    C    0.12791   0.77620   0.77615   1.000
    C204    C    0.62792   0.27620   0.27617   1.000
    C205    C    0.62792   0.27621   0.77615   1.000
    C206    C    0.62792   0.77620   0.27616   1.000
    C207    C    0.62792   0.77620   0.77615   1.000
    C208    C    0.44889   0.43484   0.31518   1.000
    C209    C    0.44889   0.43484   0.81517   1.000
    C210    C    0.44890   0.93483   0.31518   1.000
    C211    C    0.44890   0.93483   0.81517   1.000
    C212    C    0.94890   0.43484   0.31518   1.000
    C213    C    0.94891   0.43484   0.81517   1.000
    C214    C    0.94891   0.93483   0.31518   1.000
    C215    C    0.94891   0.93483   0.81516   1.000
    C216    C    0.43031   0.47382   0.47376   1.000
    C217    C    0.43031   0.47382   0.97374   1.000
    C218    C    0.43031   0.97381   0.47375   1.000
    C219    C    0.43031   0.97381   0.97374   1.000
    C220    C    0.93032   0.47382   0.47370   1.000
    C221    C    0.93032   0.47382   0.97374   1.000
    C222    C    0.93032   0.97381   0.47375   1.000
    C223    C    0.93032   0.97382   0.97374   1.000
    O224    O    0.41511   0.53816   0.03817   1.000
    O225    O    0.43844   0.49247   0.99242   1.000
    O226    O    0.49995   0.50010   0.00006   1.000
    O227    O    0.91513   0.53816   0.03814   1.000
    O228    O    0.93845   0.49247   0.99242   1.000
    O229    O    0.99995   0.50010   0.00006   1.000
    O230    O    0.41511   0.03817   0.03817   1.000
    O231    O    0.43844   0.99247   0.99242   1.000
    O232    O    0.49995   0.00010   0.00006   1.000
    O233    O    0.91512   0.03817   0.03817   1.000
    O234    O    0.93845   0.99247   0.99242   1.000
    O235    O    0.99995   0.00010   0.00006   1.000
    O236    O    0.04665   0.21203   0.03823   1.000
    O237    O    0.06914   0.25764   0.99243   1.000
    O238    O    0.99996   0.25010   0.00005   1.000
    O239    O    0.54666   0.21203   0.03823   1.000
    O240    O    0.56915   0.25764   0.99243   1.000
    O241    O    0.49996   0.25010   0.00005   1.000
    O242    O    0.54667   0.71202   0.03823   1.000
    O243    O    0.56916   0.75763   0.99243   1.000
    O244    O    0.49997   0.75009   0.00001   1.000
    O245    O    0.04666   0.71202   0.03823   1.000
    O246    O    0.06914   0.75763   0.99243   1.000
    O247    O    0.99997   0.75009   0.00005   1.000
    O248    O    0.00350   0.57577   0.07572   1.000
    O249    O    0.06145   0.50774   0.00766   1.000
    O250    O    0.92069   0.67456   0.07573   1.000
    O251    O    0.93079   0.74255   0.00766   1.000
    O252    O    0.42067   0.17457   0.07574   1.000
    O253    O    0.43077   0.24256   0.00767   1.000
    O254    O    0.92068   0.17456   0.07574   1.000
    O255    O    0.93078   0.24256   0.00767   1.000
    O256    O    0.42068   0.67456   0.07574   1.000
    O257    O    0.43078   0.74255   0.00763   1.000
    O258    O    0.00350   0.07578   0.07575   1.000
    O259    O    0.06145   0.00774   0.00770   1.000
    O260    O    0.50350   0.07578   0.07575   1.000
    O261    O    0.56146   0.00774   0.00770   1.000
    O262    O    0.50350   0.57577   0.07575   1.000
    O263    O    0.56146   0.50774   0.00770   1.000
    O264    O    0.78564   0.59508   0.09505   1.000
    O265    O    0.28563   0.09509   0.09507   1.000
    O266    O    0.78564   0.09509   0.09507   1.000
    O267    O    0.28563   0.59508   0.09507   1.000
    O268    O    0.35074   0.15502   0.15496   1.000
    O269    O    0.49422   0.09526   0.15503   1.000
    O270    O    0.42068   0.07577   0.17453   1.000
    O271    O    0.40470   0.17458   0.17455   1.000
    O272    O    0.85076   0.65501   0.15496   1.000
    O273    O    0.99423   0.59525   0.15503   1.000
    O274    O    0.92069   0.57576   0.17453   1.000
    O275    O    0.90472   0.67457   0.17454   1.000
    O276    O    0.85075   0.15501   0.15497   1.000
    O277    O    0.99422   0.09526   0.15503   1.000
    O278    O    0.92069   0.07576   0.17453   1.000
    O279    O    0.90471   0.17458   0.17455   1.000
    O280    O    0.35074   0.65501   0.15496   1.000
    O281    O    0.49423   0.59525   0.15503   1.000
    O282    O    0.42068   0.57576   0.17453   1.000
    O283    O    0.40470   0.67457   0.17454   1.000
    O284    O    0.74141   0.71193   0.21188   1.000
    O285    O    0.24139   0.71193   0.21188   1.000
    O286    O    0.24139   0.21193   0.21188   1.000
    O287    O    0.74140   0.21193   0.21189   1.000
    O288    O    0.54670   0.53823   0.21195   1.000
    O289    O    0.54669   0.03825   0.21195   1.000
    O290    O    0.04669   0.53824   0.21195   1.000
    O291    O    0.04668   0.03824   0.21195   1.000
    O292    O    0.93079   0.00770   0.24253   1.000
    O293    O    0.43078   0.00770   0.24253   1.000
    O294    O    0.93079   0.50771   0.24253   1.000
    O295    O    0.43077   0.50771   0.24253   1.000
    O296    O    0.82662   0.74259   0.24257   1.000
    O297    O    0.32661   0.74259   0.24257   1.000
    O298    O    0.82662   0.24259   0.24258   1.000
    O299    O    0.32661   0.24259   0.24257   1.000
    O300    O    0.74997   0.75010   0.25006   1.000
    O301    O    0.67332   0.75760   0.25756   1.000
    O302    O    0.74997   0.25010   0.25007   1.000
    O303    O    0.67331   0.25760   0.25757   1.000
    O304    O    0.24996   0.25010   0.25007   1.000
    O305    O    0.17330   0.25760   0.25757   1.000
    O306    O    0.24996   0.75009   0.25007   1.000
    O307    O    0.17331   0.75760   0.25756   1.000
    O308    O    0.99997   0.50009   0.25005   1.000
    O309    O    0.06915   0.49248   0.25758   1.000
    O310    O    0.49997   0.00009   0.25005   1.000
    O311    O    0.56916   0.99248   0.25758   1.000
    O312    O    0.49997   0.50009   0.25005   1.000
    O313    O    0.56916   0.49247   0.25758   1.000
    O314    O    0.99997   0.00009   0.25005   1.000
    O315    O    0.06915   0.99248   0.25758   1.000
    O316    O    0.45325   0.46194   0.28815   1.000
    O317    O    0.95326   0.96193   0.28815   1.000
    O318    O    0.95326   0.46194   0.28815   1.000
    O319    O    0.45325   0.96193   0.28815   1.000
    O320    O    0.75854   0.78826   0.28825   1.000
    O321    O    0.25853   0.78826   0.28825   1.000
    O322    O    0.25852   0.28826   0.28825   1.000
    O323    O    0.75853   0.28826   0.28826   1.000
    O324    O    0.09521   0.82561   0.32558   1.000
    O325    O    0.59522   0.82562   0.32553   1.000
    O326    O    0.07924   0.42443   0.32558   1.000
    O327    O    0.09521   0.32562   0.32558   1.000
    O328    O    0.57925   0.42443   0.32558   1.000
    O329    O    0.57925   0.92442   0.32554   1.000
    O330    O    0.59522   0.32562   0.32558   1.000
    O331    O    0.07924   0.92442   0.32559   1.000
    O332    O    0.50571   0.90493   0.34504   1.000
    O333    O    0.00571   0.40494   0.34509   1.000
    O334    O    0.00571   0.90493   0.34509   1.000
    O335    O    0.50571   0.40494   0.34509   1.000
    O336    O    0.14917   0.84518   0.34515   1.000
    O337    O    0.64919   0.84518   0.34511   1.000
    O338    O    0.64918   0.34518   0.34516   1.000
    O339    O    0.14917   0.34519   0.34516   1.000
    O340    O    0.49642   0.92442   0.42433   1.000
    O341    O    0.57925   0.82563   0.42433   1.000
    O342    O    0.49641   0.42443   0.42438   1.000
    O343    O    0.57925   0.32564   0.42438   1.000
    O344    O    0.99642   0.92442   0.42437   1.000
    O345    O    0.07924   0.82563   0.42438   1.000
    O346    O    0.99641   0.42443   0.42435   1.000
    O347    O    0.07924   0.32564   0.42438   1.000
    O348    O    0.95327   0.28817   0.46188   1.000
    O349    O    0.95328   0.78816   0.46188   1.000
    O350    O    0.45327   0.78816   0.46188   1.000
    O351    O    0.45326   0.28817   0.46188   1.000
    O352    O    0.08478   0.46204   0.46196   1.000
    O353    O    0.58479   0.96203   0.46197   1.000
    O354    O    0.58479   0.46203   0.46196   1.000
    O355    O    0.08478   0.96203   0.46195   1.000
    O356    O    0.93845   0.49247   0.49239   1.000
    O357    O    0.93845   0.99247   0.49242   1.000
    O358    O    0.43844   0.99247   0.49242   1.000
    O359    O    0.43844   0.49247   0.49242   1.000
    O360    O    0.56916   0.75763   0.49243   1.000
    O361    O    0.06915   0.75763   0.49238   1.000
    O362    O    0.56915   0.25764   0.49244   1.000
    O363    O    0.06914   0.25764   0.49244   1.000
    O364    O    0.99995   0.00010   0.50004   1.000
    O365    O    0.06145   0.00774   0.50767   1.000
    O366    O    0.99997   0.75009   0.50000   1.000
    O367    O    0.93079   0.74255   0.50765   1.000
    O368    O    0.99996   0.25010   0.50005   1.000
    O369    O    0.93078   0.24257   0.50767   1.000
    O370    O    0.49997   0.75009   0.50005   1.000
    O371    O    0.43078   0.74256   0.50767   1.000
    O372    O    0.49996   0.25010   0.50005   1.000
    O373    O    0.43077   0.24256   0.50767   1.000
    O374    O    0.49995   0.50010   0.50006   1.000
    O375    O    0.56146   0.50774   0.50769   1.000
    O376    O    0.99995   0.50010   0.50006   1.000
    O377    O    0.06145   0.50774   0.50769   1.000
    O378    O    0.49995   0.00010   0.50006   1.000
    O379    O    0.56146   0.00774   0.50767   1.000
    O380    O    0.04666   0.71202   0.53817   1.000
    O381    O    0.91513   0.03818   0.53816   1.000
    O382    O    0.41511   0.53817   0.53816   1.000
    O383    O    0.41512   0.03818   0.53816   1.000
    O384    O    0.91513   0.53817   0.53816   1.000
    O385    O    0.54667   0.71202   0.53821   1.000
    O386    O    0.04666   0.21203   0.53820   1.000
    O387    O    0.54667   0.21203   0.53822   1.000
    O388    O    0.50350   0.07578   0.57571   1.000
    O389    O    0.92069   0.67456   0.57571   1.000
    O390    O    0.42068   0.67456   0.57573   1.000
    O391    O    0.42067   0.17457   0.57573   1.000
    O392    O    0.92068   0.17457   0.57573   1.000
    O393    O    0.00350   0.07578   0.57573   1.000
    O394    O    0.50350   0.57577   0.57573   1.000
    O395    O    0.00350   0.57577   0.57573   1.000
    O396    O    0.78565   0.59508   0.59506   1.000
    O397    O    0.28563   0.59508   0.59506   1.000
    O398    O    0.28563   0.09509   0.59506   1.000
    O399    O    0.61931   0.15498   0.59511   1.000
    O400    O    0.35074   0.65501   0.65496   1.000
    O401    O    0.49423   0.59525   0.65501   1.000
    O402    O    0.42068   0.57577   0.67452   1.000
    O403    O    0.40470   0.67458   0.67453   1.000
    O404    O    0.35074   0.15501   0.65496   1.000
    O405    O    0.49422   0.09526   0.65502   1.000
    O406    O    0.40470   0.17458   0.67451   1.000
    O407    O    0.42068   0.07577   0.67452   1.000
    O408    O    0.85075   0.15502   0.65496   1.000
    O409    O    0.99422   0.09526   0.65502   1.000
    O410    O    0.92069   0.07577   0.67451   1.000
    O411    O    0.90471   0.17458   0.67453   1.000
    O412    O    0.85076   0.65501   0.65496   1.000
    O413    O    0.99423   0.59525   0.65501   1.000
    O414    O    0.92069   0.57576   0.67452   1.000
    O415    O    0.90472   0.67457   0.67453   1.000
    O416    O    0.74140   0.21193   0.71187   1.000
    O417    O    0.24139   0.21193   0.71187   1.000
    O418    O    0.24139   0.71193   0.71187   1.000
    O419    O    0.74141   0.71193   0.71187   1.000
    O420    O    0.54670   0.53824   0.71190   1.000
    O421    O    0.04669   0.53824   0.71193   1.000
    O422    O    0.54670   0.03825   0.71194   1.000
    O423    O    0.04668   0.03825   0.71194   1.000
    O424    O    0.93079   0.00770   0.74250   1.000
    O425    O    0.32661   0.24259   0.74253   1.000
    O426    O    0.43078   0.50771   0.74252   1.000
    O427    O    0.93079   0.50771   0.74252   1.000
    O428    O    0.43078   0.00770   0.74252   1.000
    O429    O    0.82662   0.74259   0.74256   1.000
    O430    O    0.82662   0.24259   0.74256   1.000
    O431    O    0.32661   0.74259   0.74252   1.000
    O432    O    0.49997   0.50009   0.75001   1.000
    O433    O    0.56917   0.49248   0.75750   1.000
    O434    O    0.24996   0.75010   0.75002   1.000
    O435    O    0.17331   0.75760   0.75755   1.000
    O436    O    0.74997   0.75010   0.75005   1.000
    O437    O    0.67332   0.75760   0.75755   1.000
    O438    O    0.24996   0.25010   0.75005   1.000
    O439    O    0.17330   0.25760   0.75755   1.000
    O440    O    0.74997   0.25010   0.75005   1.000
    O441    O    0.67331   0.25761   0.75755   1.000
    O442    O    0.99997   0.00009   0.75004   1.000
    O443    O    0.06915   0.99248   0.75757   1.000
    O444    O    0.49997   0.00009   0.75004   1.000
    O445    O    0.56916   0.99248   0.75757   1.000
    O446    O    0.99997   0.50009   0.75004   1.000
    O447    O    0.06915   0.49248   0.75757   1.000
    O448    O    0.25853   0.78826   0.78821   1.000
    O449    O    0.45325   0.46195   0.78814   1.000
    O450    O    0.95326   0.96193   0.78814   1.000
    O451    O    0.95326   0.46194   0.78814   1.000
    O452    O    0.45325   0.96193   0.78814   1.000
    O453    O    0.75853   0.28827   0.78823   1.000
    O454    O    0.75854   0.78826   0.78823   1.000
    O455    O    0.25852   0.28826   0.78823   1.000
    O456    O    0.57925   0.42443   0.82554   1.000
    O457    O    0.59522   0.32562   0.82556   1.000
    O458    O    0.59522   0.82562   0.82556   1.000
    O459    O    0.09521   0.32562   0.82553   1.000
    O460    O    0.09521   0.82562   0.82556   1.000
    O461    O    0.07924   0.92443   0.82556   1.000
    O462    O    0.07924   0.42443   0.82553   1.000
    O463    O    0.57925   0.92442   0.82556   1.000
    O464    O    0.00571   0.90493   0.84507   1.000
    O465    O    0.00571   0.40494   0.84503   1.000
    O466    O    0.50571   0.40494   0.84507   1.000
    O467    O    0.50571   0.90493   0.84507   1.000
    O468    O    0.14917   0.34519   0.84510   1.000
    O469    O    0.64919   0.84518   0.84514   1.000
    O470    O    0.14917   0.84518   0.84514   1.000
    O471    O    0.64918   0.34519   0.84514   1.000
    O472    O    0.99641   0.42443   0.92432   1.000
    O473    O    0.07923   0.32564   0.92433   1.000
    O474    O    0.49642   0.92442   0.92436   1.000
    O475    O    0.57925   0.82563   0.92436   1.000
    O476    O    0.49641   0.42443   0.92436   1.000
    O477    O    0.57925   0.32564   0.92436   1.000
    O478    O    0.99642   0.92442   0.92436   1.000
    O479    O    0.07924   0.82563   0.92436   1.000
    O480    O    0.38061   0.34522   0.90495   1.000
    O481    O    0.45326   0.28817   0.96184   1.000
    O482    O    0.45327   0.78816   0.96182   1.000
    O483    O    0.95328   0.78816   0.96186   1.000
    O484    O    0.95327   0.28817   0.96187   1.000
    O485    O    0.58479   0.96203   0.96195   1.000
    O486    O    0.58479   0.46204   0.96195   1.000
    O487    O    0.08478   0.96203   0.96195   1.000
    O488    O    0.08478   0.46204   0.96195   1.000
    O489    O    0.27406   0.34530   0.34527   1.000
    O490    O    0.27407   0.34530   0.84526   1.000
    O491    O    0.27407   0.84529   0.34527   1.000
    O492    O    0.27407   0.84529   0.84526   1.000
    O493    O    0.77407   0.34530   0.34528   1.000
    O494    O    0.77408   0.34530   0.84526   1.000
    O495    O    0.77408   0.84529   0.34527   1.000
    O496    O    0.77408   0.84529   0.84526   1.000
    O497    O    0.21427   0.40512   0.40504   1.000
    O498    O    0.08937   0.40501   0.40493   1.000
    O499    O    0.21427   0.40512   0.90504   1.000
    O500    O    0.08937   0.40501   0.90489   1.000
    O501    O    0.21427   0.90511   0.40506   1.000
    O502    O    0.08938   0.90500   0.40494   1.000
    O503    O    0.21427   0.90511   0.90504   1.000
    O504    O    0.08938   0.90501   0.90492   1.000
    O505    O    0.71428   0.40512   0.40506   1.000
    O506    O    0.58938   0.40501   0.40494   1.000
    O507    O    0.71428   0.40512   0.90504   1.000
    O508    O    0.58939   0.40501   0.90492   1.000
    O509    O    0.71428   0.90511   0.40506   1.000
    O510    O    0.58939   0.90500   0.40490   1.000
    O511    O    0.71428   0.90511   0.90504   1.000
    O512    O    0.58939   0.90500   0.90492   1.000
    O513    O    0.11930   0.15498   0.09513   1.000
    O514    O    0.99420   0.15509   0.09524   1.000
    O515    O    0.11930   0.15498   0.59509   1.000
    O516    O    0.99420   0.15509   0.59521   1.000
    O517    O    0.11931   0.65497   0.09513   1.000
    O518    O    0.99421   0.65508   0.09524   1.000
    O519    O    0.11931   0.65497   0.59510   1.000
    O520    O    0.99421   0.65508   0.59523   1.000
    O521    O    0.61931   0.15498   0.09513   1.000
    O522    O    0.49420   0.15509   0.09524   1.000
    O523    O    0.49420   0.15509   0.59523   1.000
    O524    O    0.61932   0.65497   0.09513   1.000
    O525    O    0.49421   0.65508   0.09524   1.000
    O526    O    0.61932   0.65498   0.59510   1.000
    O527    O    0.49421   0.65509   0.59523   1.000
    O528    O    0.11932   0.09515   0.15491   1.000
    O529    O    0.11932   0.09515   0.65490   1.000
    O530    O    0.11933   0.59514   0.15491   1.000
    O531    O    0.11933   0.59514   0.65489   1.000
    O532    O    0.61933   0.09515   0.15491   1.000
    O533    O    0.61934   0.09515   0.65490   1.000
    O534    O    0.61934   0.59514   0.15491   1.000
    O535    O    0.61934   0.59514   0.65489   1.000
    O536    O    0.22585   0.15491   0.15485   1.000
    O537    O    0.22585   0.15491   0.65484   1.000
    O538    O    0.22585   0.65490   0.15485   1.000
    O539    O    0.22585   0.65490   0.65484   1.000
    O540    O    0.72586   0.15491   0.15486   1.000
    O541    O    0.72586   0.15491   0.65484   1.000
    O542    O    0.72586   0.65490   0.15485   1.000
    O543    O    0.72586   0.65490   0.65484   1.000
    O544    O    0.41053   0.09520   0.09518   1.000
    O545    O    0.41053   0.09520   0.59518   1.000
    O546    O    0.41053   0.59519   0.09519   1.000
    O547    O    0.41053   0.59519   0.59518   1.000
    O548    O    0.91054   0.09520   0.09518   1.000
    O549    O    0.78564   0.09509   0.59506   1.000
    O550    O    0.91054   0.09520   0.59518   1.000
    O551    O    0.91054   0.59519   0.09516   1.000
    O552    O    0.91054   0.59519   0.59518   1.000
    O553    O    0.38061   0.34522   0.40498   1.000
    O554    O    0.50572   0.34511   0.40487   1.000
    O555    O    0.50572   0.34511   0.90484   1.000
    O556    O    0.38061   0.84521   0.40499   1.000
    O557    O    0.50573   0.84510   0.40483   1.000
    O558    O    0.38062   0.84521   0.90497   1.000
    O559    O    0.50573   0.84510   0.90486   1.000
    O560    O    0.88062   0.34522   0.40499   1.000
    O561    O    0.00572   0.34511   0.40487   1.000
    O562    O    0.88062   0.34522   0.90498   1.000
    O563    O    0.00572   0.34511   0.90483   1.000
    O564    O    0.88062   0.84521   0.40499   1.000
    O565    O    0.00573   0.84510   0.40487   1.000
    O566    O    0.88063   0.84521   0.90497   1.000
    O567    O    0.00573   0.84510   0.90486   1.000
    O568    O    0.38060   0.40505   0.34519   1.000
    O569    O    0.38060   0.40505   0.84519   1.000
    O570    O    0.38060   0.90504   0.34520   1.000
    O571    O    0.38060   0.90504   0.84519   1.000
    O572    O    0.88061   0.40505   0.34520   1.000
    O573    O    0.88061   0.40505   0.84519   1.000
    O574    O    0.88061   0.90504   0.34520   1.000
    O575    O    0.88061   0.90504   0.84519   1.000
loop_
    _geom_bond_atom_site_label_1
    _geom_bond_atom_site_label_2
    _geom_bond_distance
    _geom_bond_site_symmetry_2
    _ccdc_geom_bond_type
    C74    O224      0.63407      .   S
    C178   O224      0.63407      .   S
    C74    O225      0.63266  1_554   S
    C217   O225      0.63266      .   S
    C74    O226      0.77268      .   S
    C45    O226      0.77268  1_556   S
    C78    O227      0.63381      .   S
    C182   O227      0.63381      .   S
    C78    O228      0.63267  1_554   S
    C221   O228      0.63267      .   S
    C78    O229      0.77250      .   S
    C41    O229      0.77250  1_456   S
    C72    O230      0.63403      .   S
    C176   O230      0.63403      .   S
    C72    O231      0.63277  1_544   S
    C219   O231      0.63277      .   S
    C72    O232      0.77263      .   S
    C47    O232      0.77263  1_566   S
    C76    O233      0.63403      .   S
    C180   O233      0.63403      .   S
    C76    O234      0.63275  1_544   S
    C223   O234      0.63275      .   S
    C76    O235      0.77246      .   S
    C43    O235      0.77246  1_466   S
    C48    O236      0.63410      .   S
    C128   O236      0.63410      .   S
    C48    O237      0.63256  1_554   S
    C121   O237      0.63256      .   S
    C48    O238      0.77258  1_455   S
    C85    O238      0.77258  1_556   S
    C52    O239      0.63403      .   S
    C132   O239      0.63403      .   S
    C52    O240      0.63258  1_554   S
    C125   O240      0.63258      .   S
    C52    O241      0.77282      .   S
    C81    O241      0.77282  1_556   S
    C54    O242      0.63402      .   S
    C134   O242      0.63402      .   S
    C54    O243      0.63258  1_554   S
    C127   O243      0.63258      .   S
    C54    O244      0.77336      .   S
    C83    O244      0.77336  1_556   S
    C50    O245      0.63402      .   S
    C130   O245      0.63402      .   S
    C50    O246      0.63258  1_554   S
    C123   O246      0.63258      .   S
    C50    O247      0.77270  1_455   S
    C87    O247      0.77270  1_556   S
    C154   O248      1.18453      .   S
    C30    O248      1.18453  1_655   S
    C154   O249      0.63219      .   S
    C41    O249      0.63219  1_556   S
    C190   O250      1.18434      .   S
    C30    O250      1.18434      .   S
    C190   O251      0.63258      .   S
    C87    O251      0.63258  1_556   S
    C184   O252      1.18431      .   S
    C24    O252      1.18431      .   S
    C184   O253      0.63258      .   S
    C81    O253      0.63258  1_556   S
    C188   O254      1.18430      .   S
    C28    O254      1.18430      .   S
    C188   O255      0.63258      .   S
    C85    O255      0.63258  1_556   S
    C186   O256      1.18427      .   S
    C26    O256      1.18427      .   S
    C186   O257      0.63265      .   S
    C83    O257      0.63265  1_556   S
    C152   O258      1.18420      .   S
    C28    O258      1.18420  1_655   S
    C152   O259      0.63278      .   S
    C43    O259      0.63278  1_566   S
    C156   O260      1.18425      .   S
    C24    O260      1.18425      .   S
    C156   O261      0.63279      .   S
    C47    O261      0.63279  1_566   S
    C158   O262      1.18425      .   S
    C26    O262      1.18425      .   S
    C158   O263      0.63268      .   S
    C45    O263      0.63268  1_556   S
    C182   O264      1.36346      .   S
    C14    O264      1.36346      .   S
    C176   O265      1.36351      .   S
    C8     O265      1.36351      .   S
    C180   O266      1.36350      .   S
    C12    O266      1.36350      .   S
    C178   O267      1.36350      .   S
    C10    O267      1.36350      .   S
    C24    O268      1.19938      .   S
    C160   O268      1.19938      .   S
    C24    O269      1.19957      .   S
    C148   O269      1.19957      .   S
    C24    O270      1.18436      .   S
    C168   O270      1.18436      .   S
    C24    O271      1.18433      .   S
    C136   O271      1.18433      .   S
    C30    O272      1.19937      .   S
    C166   O272      1.19937      .   S
    C30    O273      1.19943      .   S
    C146   O273      1.19943  1_455   S
    C30    O274      1.18438      .   S
    C174   O274      1.18438      .   S
    C30    O275      1.18429      .   S
    C142   O275      1.18429      .   S
    C28    O276      1.19937      .   S
    C164   O276      1.19937      .   S
    C28    O277      1.19942      .   S
    C144   O277      1.19942  1_455   S
    C28    O278      1.18436      .   S
    C172   O278      1.18436      .   S
    C28    O279      1.18433      .   S
    C140   O279      1.18433      .   S
    C26    O280      1.19937      .   S
    C162   O280      1.19937      .   S
    C26    O281      1.19958      .   S
    C150   O281      1.19958      .   S
    C26    O282      1.18438      .   S
    C170   O282      1.18438      .   S
    C26    O283      1.18429      .   S
    C138   O283      1.18429      .   S
    C166   O284      0.63398      .   S
    C70    O284      0.63398      .   S
    C162   O285      0.63404      .   S
    C66    O285      0.63404      .   S
    C160   O286      0.63404      .   S
    C64    O286      0.63404      .   S
    C164   O287      0.63399      .   S
    C68    O287      0.63399      .   S
    C150   O288      0.63400      .   S
    C62    O288      0.63400      .   S
    C148   O289      0.63401      .   S
    C60    O289      0.63401      .   S
    C146   O290      0.63400      .   S
    C58    O290      0.63400      .   S
    C144   O291      0.63401      .   S
    C56    O291      0.63401      .   S
    C172   O292      0.63251      .   S
    C94    O292      0.63251  1_565   S
    C168   O293      0.63250      .   S
    C90    O293      0.63250  1_565   S
    C174   O294      0.63246      .   S
    C92    O294      0.63246      .   S
    C170   O295      0.63246      .   S
    C88    O295      0.63246      .   S
    C142   O296      0.63250      .   S
    C38    O296      0.63250      .   S
    C138   O297      0.63250      .   S
    C34    O297      0.63250      .   S
    C140   O298      0.63250      .   S
    C36    O298      0.63250      .   S
    C136   O299      0.63249      .   S
    C32    O299      0.63249      .   S
    C70    O300      0.77279      .   S
    C38    O300      0.77279      .   S
    C70    O301      0.63250      .   S
    C206   O301      0.63250      .   S
    C68    O302      0.77279      .   S
    C36    O302      0.77279      .   S
    C68    O303      0.63250      .   S
    C204   O303      0.63250      .   S
    C64    O304      0.77274      .   S
    C32    O304      0.77274      .   S
    C64    O305      0.63250      .   S
    C200   O305      0.63250      .   S
    C66    O306      0.77275      .   S
    C34    O306      0.77275      .   S
    C66    O307      0.63249      .   S
    C202   O307      0.63249      .   S
    C58    O308      0.77254  1_455   S
    C92    O308      0.77254      .   S
    C58    O309      0.63250      .   S
    C104   O309      0.63250      .   S
    C60    O310      0.77281      .   S
    C90    O310      0.77281  1_565   S
    C60    O311      0.63247  1_545   S
    C110   O311      0.63247      .   S
    C62    O312      0.77271      .   S
    C88    O312      0.77271      .   S
    C62    O313      0.63250      .   S
    C108   O313      0.63250      .   S
    C56    O314      0.77262  1_455   S
    C94    O314      0.77262  1_565   S
    C56    O315      0.63255  1_545   S
    C106   O315      0.63255      .   S
    C88    O316      0.63402      .   S
    C208   O316      0.63402      .   S
    C94    O317      0.63404      .   S
    C214   O317      0.63404      .   S
    C92    O318      0.63402      .   S
    C212   O318      0.63402      .   S
    C90    O319      0.63403      .   S
    C210   O319      0.63403      .   S
    C38    O320      0.63400      .   S
    C102   O320      0.63400      .   S
    C34    O321      0.63400      .   S
    C98    O321      0.63400      .   S
    C32    O322      0.63406      .   S
    C96    O322      0.63406      .   S
    C36    O323      0.63400      .   S
    C100   O323      0.63400      .   S
    C202   O324      1.18430      .   S
    C18    O324      1.18430      .   S
    C206   O325      1.18370      .   S
    C22    O325      1.18370      .   S
    C104   O326      1.18437      .   S
    C16    O326      1.18437      .   S
    C200   O327      1.18425      .   S
    C16    O327      1.18425      .   S
    C108   O328      1.18437      .   S
    C20    O328      1.18437      .   S
    C110   O329      1.18399      .   S
    C22    O329      1.18399      .   S
    C204   O330      1.18425      .   S
    C20    O330      1.18425      .   S
    C106   O331      1.18435      .   S
    C18    O331      1.18435      .   S
    C210   O332      1.19893      .   S
    C22    O332      1.19893      .   S
    C212   O333      1.19941  1_655   S
    C16    O333      1.19941      .   S
    C214   O334      1.19940  1_655   S
    C18    O334      1.19940      .   S
    C208   O335      1.19956      .   S
    C20    O335      1.19956      .   S
    C98    O336      1.19942      .   S
    C18    O336      1.19942      .   S
    C102   O337      1.19944      .   S
    C22    O337      1.19944      .   S
    C100   O338      1.19942      .   S
    C20    O338      1.19942      .   S
    C96    O339      1.19942      .   S
    C16    O339      1.19942      .   S
    C22    O340      1.18473      .   S
    C218   O340      1.18473      .   S
    C22    O341      1.18488      .   S
    C126   O341      1.18488      .   S
    C20    O342      1.18437      .   S
    C216   O342      1.18437      .   S
    C20    O343      1.18432      .   S
    C124   O343      1.18432      .   S
    C18    O344      1.18428  1_455   S
    C222   O344      1.18428      .   S
    C18    O345      1.18428      .   S
    C122   O345      1.18428      .   S
    C16    O346      1.18405  1_455   S
    C220   O346      1.18405      .   S
    C16    O347      1.18431      .   S
    C120   O347      1.18431      .   S
    C196   O348      0.63401      .   S
    C84    O348      0.63401      .   S
    C198   O349      0.63402      .   S
    C86    O349      0.63402      .   S
    C194   O350      0.63401      .   S
    C82    O350      0.63401      .   S
    C192   O351      0.63401      .   S
    C80    O351      0.63401      .   S
    C112   O352      0.63403      .   S
    C40    O352      0.63403      .   S
    C118   O353      0.63403      .   S
    C46    O353      0.63403      .   S
    C116   O354      0.63398      .   S
    C44    O354      0.63398      .   S
    C114   O355      0.63383      .   S
    C42    O355      0.63383      .   S
    C220   O356      0.63292      .   S
    C79    O356      0.63292      .   S
    C222   O357      0.63268      .   S
    C77    O357      0.63268  1_545   S
    C218   O358      0.63266      .   S
    C73    O358      0.63266  1_545   S
    C216   O359      0.63250      .   S
    C75    O359      0.63250      .   S
    C126   O360      0.63250      .   S
    C55    O360      0.63250      .   S
    C122   O361      0.63243      .   S
    C51    O361      0.63243      .   S
    C124   O362      0.63251      .   S
    C53    O362      0.63251      .   S
    C120   O363      0.63250      .   S
    C49    O363      0.63250      .   S
    C42    O364      0.77240  1_465   S
    C77    O364      0.77240      .   S
    C42    O365      0.63284  1_565   S
    C153   O365      0.63284      .   S
    C86    O366      0.77195      .   S
    C51    O366      0.77195  1_455   S
    C86    O367      0.63247      .   S
    C191   O367      0.63247      .   S
    C84    O368      0.77255      .   S
    C49    O368      0.77255  1_455   S
    C84    O369      0.63251      .   S
    C189   O369      0.63251      .   S
    C82    O370      0.77267      .   S
    C55    O370      0.77267      .   S
    C82    O371      0.63251      .   S
    C187   O371      0.63251      .   S
    C80    O372      0.77273      .   S
    C53    O372      0.77273      .   S
    C80    O373      0.63251      .   S
    C185   O373      0.63251      .   S
    C44    O374      0.77269      .   S
    C75    O374      0.77269      .   S
    C44    O375      0.63253      .   S
    C159   O375      0.63253      .   S
    C40    O376      0.77251  1_455   S
    C79    O376      0.77251      .   S
    C40    O377      0.63252      .   S
    C155   O377      0.63252      .   S
    C46    O378      0.77266  1_565   S
    C73    O378      0.77266      .   S
    C46    O379      0.63220  1_565   S
    C157   O379      0.63220      .   S
    C51    O380      0.63460      .   S
    C131   O380      0.63460      .   S
    C77    O381      0.63402      .   S
    C181   O381      0.63402      .   S
    C75    O382      0.63402      .   S
    C179   O382      0.63402      .   S
    C73    O383      0.63402      .   S
    C177   O383      0.63402      .   S
    C79    O384      0.63401      .   S
    C183   O384      0.63401      .   S
    C55    O385      0.63403      .   S
    C135   O385      0.63403      .   S
    C49    O386      0.63379      .   S
    C129   O386      0.63379      .   S
    C53    O387      0.63405      .   S
    C133   O387      0.63405      .   S
    C157   O388      1.18453      .   S
    C25    O388      1.18453      .   S
    C191   O389      1.18456      .   S
    C31    O389      1.18456      .   S
    C187   O390      1.18436      .   S
    C27    O390      1.18436      .   S
    C185   O391      1.18432      .   S
    C25    O391      1.18432      .   S
    C189   O392      1.18433      .   S
    C29    O392      1.18433      .   S
    C153   O393      1.18425      .   S
    C29    O393      1.18425  1_655   S
    C159   O394      1.18430      .   S
    C27    O394      1.18430      .   S
    C155   O395      1.18426      .   S
    C31    O395      1.18426  1_655   S
    C183   O396      1.36350      .   S
    C15    O396      1.36350      .   S
    C179   O397      1.36350      .   S
    C11    O397      1.36350      .   S
    C177   O398      1.36351      .   S
    C9     O398      1.36351      .   S
    C133   O399      1.36348      .   S
    C13    O399      1.36348      .   S
    C27    O400      1.19937      .   S
    C163   O400      1.19937      .   S
    C27    O401      1.19952      .   S
    C151   O401      1.19952      .   S
    C27    O402      1.18433      .   S
    C171   O402      1.18433      .   S
    C27    O403      1.18429      .   S
    C139   O403      1.18429      .   S
    C25    O404      1.19938      .   S
    C161   O404      1.19938      .   S
    C25    O405      1.19958      .   S
    C149   O405      1.19958      .   S
    C25    O406      1.18393      .   S
    C137   O406      1.18393      .   S
    C25    O407      1.18436      .   S
    C169   O407      1.18436      .   S
    C29    O408      1.19938      .   S
    C165   O408      1.19938      .   S
    C29    O409      1.19942      .   S
    C145   O409      1.19942  1_455   S
    C29    O410      1.18427      .   S
    C173   O410      1.18427      .   S
    C29    O411      1.18426      .   S
    C141   O411      1.18426      .   S
    C31    O412      1.19937      .   S
    C167   O412      1.19937      .   S
    C31    O413      1.19936      .   S
    C147   O413      1.19936  1_455   S
    C31    O414      1.18433      .   S
    C175   O414      1.18433      .   S
    C31    O415      1.18429      .   S
    C143   O415      1.18429      .   S
    C165   O416      0.63406      .   S
    C69    O416      0.63406      .   S
    C161   O417      0.63405      .   S
    C65    O417      0.63405      .   S
    C163   O418      0.63399      .   S
    C67    O418      0.63399      .   S
    C167   O419      0.63399      .   S
    C71    O419      0.63399      .   S
    C151   O420      0.63369      .   S
    C63    O420      0.63369      .   S
    C147   O421      0.63406      .   S
    C59    O421      0.63406      .   S
    C149   O422      0.63401      .   S
    C61    O422      0.63401      .   S
    C145   O423      0.63401      .   S
    C57    O423      0.63401      .   S
    C173   O424      0.63264      .   S
    C95    O424      0.63264  1_565   S
    C137   O425      0.63254      .   S
    C33    O425      0.63254      .   S
    C171   O426      0.63253      .   S
    C89    O426      0.63253      .   S
    C175   O427      0.63253      .   S
    C93    O427      0.63253      .   S
    C169   O428      0.63250      .   S
    C91    O428      0.63250  1_565   S
    C143   O429      0.63251      .   S
    C39    O429      0.63251      .   S
    C141   O430      0.63250      .   S
    C37    O430      0.63250      .   S
    C139   O431      0.63245      .   S
    C35    O431      0.63245      .   S
    C63    O432      0.77257      .   S
    C89    O432      0.77257      .   S
    C63    O433      0.63257      .   S
    C109   O433      0.63257      .   S
    C67    O434      0.77243      .   S
    C35    O434      0.77243      .   S
    C67    O435      0.63250      .   S
    C203   O435      0.63250      .   S
    C71    O436      0.77279      .   S
    C39    O436      0.77279      .   S
    C71    O437      0.63250      .   S
    C207   O437      0.63250      .   S
    C65    O438      0.77274      .   S
    C33    O438      0.77274      .   S
    C65    O439      0.63250      .   S
    C201   O439      0.63250      .   S
    C69    O440      0.77273      .   S
    C37    O440      0.77273      .   S
    C69    O441      0.63250      .   S
    C205   O441      0.63250      .   S
    C57    O442      0.77263  1_455   S
    C95    O442      0.77263  1_565   S
    C57    O443      0.63247  1_545   S
    C107   O443      0.63247      .   S
    C61    O444      0.77281      .   S
    C91    O444      0.77281  1_565   S
    C61    O445      0.63247  1_545   S
    C111   O445      0.63247      .   S
    C59    O446      0.77254  1_455   S
    C93    O446      0.77254      .   S
    C59    O447      0.63250      .   S
    C105   O447      0.63250      .   S
    C35    O448      0.63438      .   S
    C99    O448      0.63438      .   S
    C89    O449      0.63402      .   S
    C209   O449      0.63402      .   S
    C95    O450      0.63398      .   S
    C215   O450      0.63398      .   S
    C93    O451      0.63402      .   S
    C213   O451      0.63402      .   S
    C91    O452      0.63403      .   S
    C211   O452      0.63403      .   S
    C37    O453      0.63400      .   S
    C101   O453      0.63400      .   S
    C39    O454      0.63400      .   S
    C103   O454      0.63400      .   S
    C33    O455      0.63393      .   S
    C97    O455      0.63393      .   S
    C109   O456      1.18460      .   S
    C21    O456      1.18460      .   S
    C205   O457      1.18426      .   S
    C21    O457      1.18426      .   S
    C207   O458      1.18423      .   S
    C23    O458      1.18423      .   S
    C201   O459      1.18379      .   S
    C17    O459      1.18379      .   S
    C203   O460      1.18423      .   S
    C19    O460      1.18423      .   S
    C107   O461      1.18436      .   S
    C19    O461      1.18436      .   S
    C105   O462      1.18400      .   S
    C17    O462      1.18400      .   S
    C111   O463      1.18435      .   S
    C23    O463      1.18435      .   S
    C215   O464      1.19940  1_655   S
    C19    O464      1.19940      .   S
    C213   O465      1.19885  1_655   S
    C17    O465      1.19885      .   S
    C209   O466      1.19949      .   S
    C21    O466      1.19949      .   S
    C211   O467      1.19948      .   S
    C23    O467      1.19948      .   S
    C97    O468      1.19943      .   S
    C17    O468      1.19943      .   S
    C103   O469      1.19943      .   S
    C23    O469      1.19943      .   S
    C99    O470      1.19943      .   S
    C19    O470      1.19943      .   S
    C101   O471      1.19942      .   S
    C21    O471      1.19942      .   S
    C17    O472      1.18463  1_455   S
    C221   O472      1.18463      .   S
    C17    O473      1.18483      .   S
    C121   O473      1.18483      .   S
    C23    O474      1.18437      .   S
    C219   O474      1.18437      .   S
    C23    O475      1.18433      .   S
    C127   O475      1.18433      .   S
    C21    O476      1.18436      .   S
    C217   O476      1.18436      .   S
    C21    O477      1.18430      .   S
    C125   O477      1.18430      .   S
    C19    O478      1.18432  1_455   S
    C223   O478      1.18432      .   S
    C19    O479      1.18432      .   S
    C123   O479      1.18432      .   S
    C1     O480      1.36325      .   S
    C193   O480      1.36325      .   S
    C193   O481      0.63432      .   S
    C81    O481      0.63432      .   S
    C195   O482      0.63351      .   S
    C83    O482      0.63351      .   S
    C199   O483      0.63401      .   S
    C87    O483      0.63401      .   S
    C197   O484      0.63400      .   S
    C85    O484      0.63400      .   S
    C119   O485      0.63404      .   S
    C47    O485      0.63404      .   S
    C117   O486      0.63403      .   S
    C45    O486      0.63403      .   S
    C115   O487      0.63404      .   S
    C43    O487      0.63404      .   S
    C113   O488      0.63403      .   S
    C41    O488      0.63403      .   S
    C96    O489      1.36333      .   S
    C0     O489      1.36333      .   S
    C97    O490      1.36363      .   S
    C1     O490      1.36363      .   S
    C98    O491      1.36351      .   S
    C2     O491      1.36351      .   S
    C99    O492      1.36349      .   S
    C3     O492      1.36349      .   S
    C100   O493      1.36349      .   S
    C4     O493      1.36349      .   S
    C101   O494      1.36355      .   S
    C5     O494      1.36355      .   S
    C102   O495      1.36349      .   S
    C6     O495      1.36349      .   S
    C103   O496      1.36351      .   S
    C7     O496      1.36351      .   S
    C112   O497      1.36359      .   S
    C0     O497      1.36359      .   S
    C112   O498      1.19965      .   S
    C16    O498      1.19965      .   S
    C113   O499      1.36362      .   S
    C1     O499      1.36362      .   S
    C113   O500      1.20021      .   S
    C17    O500      1.20021      .   S
    C114   O501      1.36362      .   S
    C2     O501      1.36362      .   S
    C114   O502      1.19969      .   S
    C18    O502      1.19969      .   S
    C115   O503      1.36363      .   S
    C3     O503      1.36363      .   S
    C115   O504      1.19970      .   S
    C19    O504      1.19970      .   S
    C116   O505      1.36361      .   S
    C4     O505      1.36361      .   S
    C116   O506      1.19972      .   S
    C20    O506      1.19972      .   S
    C117   O507      1.36362      .   S
    C5     O507      1.36362      .   S
    C117   O508      1.19972      .   S
    C21    O508      1.19972      .   S
    C118   O509      1.36362      .   S
    C6     O509      1.36362      .   S
    C118   O510      1.20030      .   S
    C22    O510      1.20030      .   S
    C119   O511      1.36363      .   S
    C7     O511      1.36363      .   S
    C119   O512      1.19970      .   S
    C23    O512      1.19970      .   S
    C128   O513      1.36356      .   S
    C8     O513      1.36356      .   S
    C128   O514      1.19951  1_455   S
    C28    O514      1.19951      .   S
    C129   O515      1.36375      .   S
    C9     O515      1.36375      .   S
    C129   O516      1.19951  1_455   S
    C29    O516      1.19951      .   S
    C130   O517      1.36353      .   S
    C10    O517      1.36353      .   S
    C130   O518      1.19952  1_455   S
    C30    O518      1.19952      .   S
    C131   O519      1.36352      .   S
    C11    O519      1.36352      .   S
    C131   O520      1.19952  1_455   S
    C31    O520      1.19952      .   S
    C132   O521      1.36356      .   S
    C12    O521      1.36356      .   S
    C132   O522      1.19967      .   S
    C24    O522      1.19967      .   S
    C133   O523      1.19967      .   S
    C25    O523      1.19967      .   S
    C134   O524      1.36353      .   S
    C14    O524      1.36353      .   S
    C134   O525      1.19967      .   S
    C26    O525      1.19967      .   S
    C135   O526      1.36352      .   S
    C15    O526      1.36352      .   S
    C135   O527      1.19967      .   S
    C27    O527      1.19967      .   S
    C144   O528      1.36356      .   S
    C8     O528      1.36356      .   S
    C145   O529      1.36356      .   S
    C9     O529      1.36356      .   S
    C146   O530      1.36356      .   S
    C10    O530      1.36356      .   S
    C147   O531      1.36356      .   S
    C11    O531      1.36356      .   S
    C148   O532      1.36356      .   S
    C12    O532      1.36356      .   S
    C149   O533      1.36355      .   S
    C13    O533      1.36355      .   S
    C150   O534      1.36356      .   S
    C14    O534      1.36356      .   S
    C151   O535      1.36356      .   S
    C15    O535      1.36356      .   S
    C160   O536      1.36355      .   S
    C8     O536      1.36355      .   S
    C161   O537      1.36359      .   S
    C9     O537      1.36359      .   S
    C162   O538      1.36358      .   S
    C10    O538      1.36358      .   S
    C163   O539      1.36365      .   S
    C11    O539      1.36365      .   S
    C164   O540      1.36359      .   S
    C12    O540      1.36359      .   S
    C165   O541      1.36361      .   S
    C13    O541      1.36361      .   S
    C166   O542      1.36361      .   S
    C14    O542      1.36361      .   S
    C167   O543      1.36364      .   S
    C15    O543      1.36364      .   S
    C176   O544      1.19974      .   S
    C24    O544      1.19974      .   S
    C177   O545      1.19972      .   S
    C25    O545      1.19972      .   S
    C178   O546      1.19969      .   S
    C26    O546      1.19969      .   S
    C179   O547      1.19975      .   S
    C27    O547      1.19975      .   S
    C180   O548      1.19973      .   S
    C28    O548      1.19973      .   S
    C181   O549      1.36351      .   S
    C13    O549      1.36351      .   S
    C181   O550      1.19973      .   S
    C29    O550      1.19973      .   S
    C182   O551      1.20004      .   S
    C30    O551      1.20004      .   S
    C183   O552      1.19975      .   S
    C31    O552      1.19975      .   S
    C192   O553      1.36370      .   S
    C0     O553      1.36370      .   S
    C192   O554      1.19964      .   S
    C20    O554      1.19964      .   S
    C193   O555      1.19964      .   S
    C21    O555      1.19964      .   S
    C194   O556      1.36361      .   S
    C2     O556      1.36361      .   S
    C194   O557      1.19962      .   S
    C22    O557      1.19962      .   S
    C195   O558      1.36354      .   S
    C3     O558      1.36354      .   S
    C195   O559      1.19963      .   S
    C23    O559      1.19963      .   S
    C196   O560      1.36357      .   S
    C4     O560      1.36357      .   S
    C196   O561      1.19948  1_655   S
    C16    O561      1.19948      .   S
    C197   O562      1.36358      .   S
    C5     O562      1.36358      .   S
    C197   O563      1.19948  1_655   S
    C17    O563      1.19948      .   S
    C198   O564      1.36360      .   S
    C6     O564      1.36360      .   S
    C198   O565      1.19948  1_655   S
    C18    O565      1.19948      .   S
    C199   O566      1.36354      .   S
    C7     O566      1.36354      .   S
    C199   O567      1.19948  1_655   S
    C19    O567      1.19948      .   S
    C208   O568      1.36360      .   S
    C0     O568      1.36360      .   S
    C209   O569      1.36358      .   S
    C1     O569      1.36358      .   S
    C210   O570      1.36358      .   S
    C2     O570      1.36358      .   S
    C211   O571      1.36358      .   S
    C3     O571      1.36358      .   S
    C212   O572      1.36359      .   S
    C4     O572      1.36359      .   S
    C213   O573      1.36358      .   S
    C5     O573      1.36358      .   S
    C214   O574      1.36358      .   S
    C6     O574      1.36358      .   S
    C215   O575      1.36358      .   S
    C7     O575      1.36358      .   S
