# CIF file generated by openbabel 2.4.90, see http://openbabel.sf.net
data_I
_chemical_name_common ''
_cell_length_a 13.183
_cell_length_b 13.173
_cell_length_c 13.98
_cell_angle_alpha 105.565
_cell_angle_beta 105.292
_cell_angle_gamma 93.379
_space_group_name_H-M_alt 'P 1'
_space_group_name_Hall 'P 1'
loop_
    _symmetry_equiv_pos_as_xyz
    x,y,z
loop_
    _atom_site_label
    _atom_site_type_symbol
    _atom_site_fract_x
    _atom_site_fract_y
    _atom_site_fract_z
    _atom_site_occupancy
    Lv0     Lv   0.34477   0.15101   0.25421   1.000
    Lv1     Lv   0.81298   0.18765   0.75025   1.000
    Lv2     Lv   0.18705   0.81237   0.24976   1.000
    Lv3     Lv   0.15067   0.34466   0.75416   1.000
    Lv4     Lv   0.84936   0.65536   0.24585   1.000
    Lv5     Lv   0.65526   0.84901   0.74581   1.000
