# CIF file generated by openbabel 2.4.90, see http://openbabel.sf.net
data_I
_chemical_name_common ''
_cell_length_a 13.183
_cell_length_b 13.173
_cell_length_c 13.98
_cell_angle_alpha 105.565
_cell_angle_beta 105.292
_cell_angle_gamma 93.379
_space_group_name_H-M_alt 'P 1'
_space_group_name_Hall 'P 1'
loop_
    _symmetry_equiv_pos_as_xyz
    x,y,z
loop_
    _atom_site_label
    _atom_site_type_symbol
    _atom_site_fract_x
    _atom_site_fract_y
    _atom_site_fract_z
    _atom_site_occupancy
    N0      N    0.34477   0.15101   0.25421   1.000
    N1      N    0.81298   0.18765   0.75025   1.000
    N2      N    0.18705   0.81237   0.24976   1.000
    N3      N    0.15067   0.34466   0.75416   1.000
    N4      N    0.84936   0.65536   0.24585   1.000
    N5      N    0.65526   0.84901   0.74581   1.000
    Zr6     Zr   0.84470   0.15543   0.25001   1.000
    O7      O    0.84323   0.96465   0.24013   1.000
    O8      O    0.84940   0.34605   0.25551   1.000
    O9      O    0.82965   0.15732   0.07807   1.000
    O10     O    0.03539   0.15691   0.25962   1.000
    O11     O    0.65417   0.15090   0.24473   1.000
    O12     O    0.84292   0.17069   0.42209   1.000
    Zr13    Zr   0.15533   0.84460   0.74995   1.000
    O14     O    0.15680   0.03537   0.75986   1.000
    O15     O    0.17038   0.84271   0.92192   1.000
    O16     O    0.96464   0.84312   0.74025   1.000
    O17     O    0.15711   0.82934   0.57790   1.000
    O18     O    0.34586   0.84913   0.75526   1.000
    O19     O    0.15063   0.65398   0.74448   1.000
loop_
    _geom_bond_atom_site_label_1
    _geom_bond_atom_site_label_2
    _geom_bond_distance
    _geom_bond_site_symmetry_2
    _ccdc_geom_bond_type
    Zr6    O7        2.47820  1_545   S
    N4     O7        4.10165      .   S
    Zr6    O8        2.48812      .   S
    N4     O8        4.11284      .   S
    Zr6    O9        2.36620      .   S
    N1     O9        4.65542  1_556   S
    Zr6    O10       2.48041  1_655   S
    N0     O10       4.10407      .   S
    Zr6    O11       2.49002      .   S
    N0     O11       4.11584      .   S
    Zr6    O12       2.36623      .   S
    N1     O12       4.65490      .   S
    Zr13   O14       2.47810  1_565   S
    N3     O14       4.10155      .   S
    Zr13   O15       2.36659      .   S
    N2     O15       4.65577  1_554   S
    Zr13   O16       2.48015  1_455   S
    N5     O16       4.10465      .   S
    Zr13   O17       2.36583      .   S
    N2     O17       4.65458      .   S
    Zr13   O18       2.48991      .   S
    N5     O18       4.11571      .   S
    Zr13   O19       2.48821      .   S
    N3     O19       4.11297      .   S
