# CIF file generated by openbabel 2.4.90, see http://openbabel.sf.net
data_I
_chemical_name_common ''
_cell_length_a 18.407
_cell_length_b 18.416
_cell_length_c 18.411
_cell_angle_alpha 60.328
_cell_angle_beta 60.251
_cell_angle_gamma 60.283
_space_group_name_H-M_alt 'P 1'
_space_group_name_Hall 'P 1'
loop_
    _symmetry_equiv_pos_as_xyz
    x,y,z
loop_
    _atom_site_label
    _atom_site_type_symbol
    _atom_site_fract_x
    _atom_site_fract_y
    _atom_site_fract_z
    _atom_site_occupancy
    Zn0     Zn   0.29315   0.29323   0.11968   1.000
    Zn1     Zn   0.29319   0.11978   0.29325   1.000
    Zn2     Zn   0.11958   0.29314   0.29310   1.000
    Zn3     Zn   0.70598   0.70639   0.70621   1.000
    Zn4     Zn   0.70687   0.70677   0.88031   1.000
    Zn5     Zn   0.88044   0.70685   0.70687   1.000
    Zn6     Zn   0.70683   0.88021   0.70674   1.000
    H7      H    0.16431   0.45248   0.45252   1.000
    H8      H    0.45177   0.16413   0.93200   1.000
    H9      H    0.45165   0.93216   0.16422   1.000
    H10     H    0.93224   0.45125   0.45120   1.000
    H11     H    0.16434   0.45166   0.93195   1.000
    H12     H    0.45119   0.93239   0.45116   1.000
    H13     H    0.45273   0.16410   0.45260   1.000
    H14     H    0.93180   0.45178   0.16422   1.000
    H15     H    0.16435   0.93212   0.45159   1.000
    H16     H    0.45267   0.45255   0.16419   1.000
    H17     H    0.45125   0.45120   0.93230   1.000
    H18     H    0.93180   0.16412   0.45184   1.000
    H19     H    0.54729   0.83590   0.54732   1.000
    H20     H    0.83568   0.54834   0.06804   1.000
    H21     H    0.06822   0.54822   0.83577   1.000
    H22     H    0.54883   0.06760   0.54883   1.000
    H23     H    0.54824   0.83587   0.06799   1.000
    H24     H    0.06778   0.54874   0.54872   1.000
    H25     H    0.83571   0.54752   0.54747   1.000
    H26     H    0.54837   0.06784   0.83577   1.000
    H27     H    0.06821   0.83587   0.54815   1.000
    H28     H    0.54735   0.54744   0.83580   1.000
    H29     H    0.54877   0.54879   0.06769   1.000
    H30     H    0.83568   0.06787   0.54840   1.000
    C31     C    0.09233   0.47367   0.47370   1.000
    Zn32    Zn   0.29404   0.29360   0.29378   1.000
    C33     C    0.47329   0.09223   0.96100   1.000
    C34     C    0.47323   0.96108   0.09228   1.000
    C35     C    0.96117   0.47298   0.47300   1.000
    C36     C    0.09235   0.47322   0.96098   1.000
    C37     C    0.47296   0.96125   0.47293   1.000
    C38     C    0.47382   0.09221   0.47377   1.000
    C39     C    0.96091   0.47328   0.09228   1.000
    C40     C    0.09235   0.96107   0.47318   1.000
    C41     C    0.47379   0.47371   0.09226   1.000
    C42     C    0.47300   0.47296   0.96120   1.000
    C43     C    0.96091   0.09223   0.47331   1.000
    C44     C    0.52620   0.90778   0.52620   1.000
    C45     C    0.90767   0.52677   0.03900   1.000
    C46     C    0.03911   0.52671   0.90771   1.000
    C47     C    0.52706   0.03875   0.52706   1.000
    C48     C    0.52672   0.90776   0.03899   1.000
    C49     C    0.03885   0.52700   0.52699   1.000
    C50     C    0.90769   0.52632   0.52629   1.000
    C51     C    0.52679   0.03892   0.90771   1.000
    C52     C    0.03911   0.90777   0.52667   1.000
    C53     C    0.52623   0.52628   0.90773   1.000
    C54     C    0.52703   0.52703   0.03879   1.000
    C55     C    0.90767   0.03892   0.52680   1.000
    C56     C    0.11130   0.38893   0.38901   1.000
    C57     C    0.05383   0.44631   0.44635   1.000
    C58     C    0.38863   0.11097   0.11092   1.000
    C59     C    0.44615   0.05364   0.05360   1.000
    C60     C    0.11086   0.38860   0.11089   1.000
    C61     C    0.05358   0.44613   0.05360   1.000
    C62     C    0.38913   0.11125   0.38903   1.000
    C63     C    0.44642   0.05382   0.44635   1.000
    C64     C    0.11086   0.11095   0.38861   1.000
    C65     C    0.05358   0.05364   0.44614   1.000
    C66     C    0.38913   0.38895   0.11126   1.000
    C67     C    0.44643   0.44630   0.05381   1.000
    C68     C    0.61089   0.88874   0.61096   1.000
    C69     C    0.55360   0.94617   0.55364   1.000
    C70     C    0.88916   0.61140   0.88910   1.000
    C71     C    0.94644   0.55386   0.94630   1.000
    C72     C    0.61138   0.88902   0.88907   1.000
    C73     C    0.55387   0.94635   0.94630   1.000
    C74     C    0.88872   0.61106   0.61098   1.000
    C75     C    0.94619   0.55369   0.55363   1.000
    C76     C    0.88916   0.88904   0.61138   1.000
    C77     C    0.94644   0.94635   0.55385   1.000
    C78     C    0.61090   0.61105   0.88873   1.000
    C79     C    0.55359   0.55370   0.94617   1.000
    O80     O    0.25005   0.25006   0.25005   1.000
    O81     O    0.74997   0.74994   0.74994   1.000
    O82     O    0.19509   0.36699   0.36721   1.000
    O83     O    0.36635   0.19463   0.07141   1.000
    O84     O    0.36647   0.07151   0.19463   1.000
    O85     O    0.07171   0.36664   0.36663   1.000
    O86     O    0.19465   0.36646   0.07134   1.000
    O87     O    0.36668   0.07175   0.36673   1.000
    O88     O    0.36742   0.19495   0.36711   1.000
    O89     O    0.07127   0.36628   0.19462   1.000
    O90     O    0.19464   0.07146   0.36653   1.000
    O91     O    0.36747   0.36693   0.19500   1.000
    O92     O    0.36665   0.36671   0.07171   1.000
    O93     O    0.07128   0.19462   0.36625   1.000
    O94     O    0.63260   0.80504   0.63288   1.000
    O95     O    0.80537   0.63354   0.92865   1.000
    O96     O    0.92875   0.63371   0.80537   1.000
    O97     O    0.63335   0.92824   0.63326   1.000
    O98     O    0.63366   0.80536   0.92858   1.000
    O99     O    0.92831   0.63335   0.63336   1.000
    O100    O    0.80493   0.63301   0.63278   1.000
    O101    O    0.63355   0.92849   0.80536   1.000
    O102    O    0.92874   0.80537   0.63373   1.000
    O103    O    0.63255   0.63307   0.80499   1.000
    O104    O    0.63337   0.63329   0.92828   1.000
    O105    O    0.80538   0.92853   0.63346   1.000
loop_
    _geom_bond_atom_site_label_1
    _geom_bond_atom_site_label_2
    _geom_bond_distance
    _geom_bond_site_symmetry_2
    _ccdc_geom_bond_type
    C54    H29       1.08865      .   S
    C54    C41       1.39045      .   S
    C54    C79       1.40341  1_554   S
    C48    H23       1.08859      .   S
    C48    C34       1.39024      .   S
    C48    C73       1.40429  1_554   S
    C45    H20       1.08860      .   S
    C45    C39       1.39038      .   S
    C45    C71       1.40437  1_554   S
    C61    C39       1.40294  1_455   S
    C61    C60       1.49547      .   S
    C61    C36       1.40321  1_554   S
    C59    C34       1.40334  1_545   S
    C59    C58       1.49515      .   S
    C59    C33       1.40299  1_554   S
    C67    C41       1.40326      .   S
    C67    C66       1.49606      .   S
    C67    C42       1.40325  1_554   S
    O86    C60       1.27712      .   S
    O86    Zn0       1.97161      .   S
    O83    C58       1.27707      .   S
    O83    Zn0       1.97132      .   S
    O92    C66       1.27714      .   S
    O92    Zn0       1.97175      .   S
    C41    H16       1.08863      .   S
    C34    H9        1.08855      .   S
    C39    H14       1.08857      .   S
    C60    O89       1.27718      .   S
    C58    O84       1.27707      .   S
    C66    O91       1.27737      .   S
    Zn0    O80       1.96695      .   S
    O89    Zn2       1.97163      .   S
    O84    Zn1       1.97112      .   S
    O91    Zn32      1.97392      .   S
    O80    Zn1       1.96669      .   S
    Zn2    O93       1.97176      .   S
    Zn2    O85       1.97209      .   S
    Zn1    O90       1.97126      .   S
    Zn1    O87       1.97156      .   S
    Zn32   O88       1.97383      .   S
    Zn32   O82       1.97393      .   S
    O93    C64       1.27714      .   S
    O90    C64       1.27707      .   S
    O85    C56       1.27708      .   S
    O87    C62       1.27702      .   S
    O88    C62       1.27745      .   S
    O82    C56       1.27739      .   S
    C64    C65       1.49531      .   S
    C56    C57       1.49605      .   S
    C62    C63       1.49601      .   S
    C65    C40       1.40339  1_545   S
    C65    C43       1.40289  1_455   S
    C57    C35       1.40307  1_455   S
    C57    C31       1.40319      .   S
    C63    C37       1.40367  1_545   S
    C63    C38       1.40314      .   S
    H12    C37       1.08852      .   S
    H10    C35       1.08962      .   S
    H15    C40       1.08859      .   S
    H18    C43       1.08859      .   S
    H7     C31       1.08862      .   S
    H13    C38       1.08856      .   S
    C37    C44       1.39025      .   S
    C35    C50       1.39047      .   S
    C40    C52       1.39022      .   S
    C43    C55       1.39023      .   S
    C31    C49       1.39048      .   S
    C38    C47       1.39051      .   S
    C44    H19       1.08863      .   S
    C44    C69       1.40335      .   S
    C50    H25       1.08863      .   S
    C50    C75       1.40322      .   S
    C52    H27       1.08859      .   S
    C52    C77       1.40289  1_455   S
    C55    H30       1.08858      .   S
    C55    C77       1.40341  1_545   S
    C49    H24       1.08864      .   S
    C49    C75       1.40308  1_455   S
    C47    H22       1.08849      .   S
    C47    C69       1.40368  1_545   S
    C75    C74       1.49603      .   S
    C69    C68       1.49609      .   S
    C77    C76       1.49531      .   S
    C68    O94       1.27745      .   S
    C68    O97       1.27702      .   S
    C74    O100      1.27736      .   S
    C74    O99       1.27712      .   S
    C76    O105      1.27709      .   S
    C76    O102      1.27713      .   S
    O100   Zn3       1.97394      .   S
    O94    Zn3       1.97383      .   S
    O97    Zn6       1.97153      .   S
    O99    Zn5       1.97187      .   S
    O105   Zn6       1.97125      .   S
    O102   Zn5       1.97175      .   S
    Zn3    O103      1.97392      .   S
    Zn6    O81       1.96669      .   S
    Zn6    O101      1.97112      .   S
    Zn5    O96       1.97194      .   S
    O81    Zn4       1.96695      .   S
    O103   C78       1.27737      .   S
    O101   C72       1.27707      .   S
    O96    C70       1.27718      .   S
    H21    C46       1.08857      .   S
    H26    C51       1.08855      .   S
    H28    C53       1.08863      .   S
    Zn4    O104      1.97175      .   S
    Zn4    O98       1.97130      .   S
    Zn4    O95       1.97161      .   S
    C78    O104      1.27713      .   S
    C78    C79       1.49608      .   S
    C72    O98       1.27709      .   S
    C72    C73       1.49397      .   S
    C70    O95       1.27713      .   S
    C70    C71       1.49431      .   S
    C51    C73       1.40322  1_545   S
    C51    C33       1.39024      .   S
    C46    C71       1.40281  1_455   S
    C46    C36       1.39025      .   S
    C53    C79       1.40309      .   S
    C53    C42       1.39046      .   S
    H11    C36       1.08859      .   S
    H8     C33       1.08857      .   S
    H17    C42       1.08863      .   S
    O80    Zn32      1.96899      .   S
    O80    Zn2       1.96710      .   S
    O81    Zn3       1.96897      .   S
    O81    Zn5       1.96710      .   S
