# CIF file generated by openbabel 2.4.90, see http://openbabel.sf.net
data_I
_chemical_name_common ''
_cell_length_a 18.407
_cell_length_b 18.416
_cell_length_c 18.411
_cell_angle_alpha 60.328
_cell_angle_beta 60.251
_cell_angle_gamma 60.283
_space_group_name_H-M_alt 'P 1'
_space_group_name_Hall 'P 1'
loop_
    _symmetry_equiv_pos_as_xyz
    x,y,z
loop_
    _atom_site_label
    _atom_site_type_symbol
    _atom_site_fract_x
    _atom_site_fract_y
    _atom_site_fract_z
    _atom_site_occupancy
    Zn0     Zn   0.29315   0.29323   0.11968   1.000
    Zn1     Zn   0.29319   0.11978   0.29325   1.000
    Zn2     Zn   0.11958   0.29314   0.29310   1.000
    Zn3     Zn   0.70598   0.70639   0.70621   1.000
    Zn4     Zn   0.70687   0.70677   0.88031   1.000
    Zn5     Zn   0.88044   0.70685   0.70687   1.000
    Zn6     Zn   0.70683   0.88021   0.70674   1.000
    Zn7     Zn   0.29404   0.29360   0.29378   1.000
    C8      C    0.11130   0.38893   0.38901   1.000
    C9      C    0.38863   0.11097   0.11092   1.000
    C10     C    0.11086   0.38860   0.11089   1.000
    C11     C    0.38913   0.11125   0.38903   1.000
    C12     C    0.11086   0.11095   0.38861   1.000
    C13     C    0.38913   0.38895   0.11126   1.000
    C14     C    0.61089   0.88874   0.61096   1.000
    C15     C    0.88916   0.61140   0.88910   1.000
    C16     C    0.61138   0.88902   0.88907   1.000
    C17     C    0.88872   0.61106   0.61098   1.000
    C18     C    0.88916   0.88904   0.61138   1.000
    C19     C    0.61090   0.61105   0.88873   1.000
    O20     O    0.25005   0.25006   0.25005   1.000
    O21     O    0.74997   0.74994   0.74994   1.000
    O22     O    0.19509   0.36699   0.36721   1.000
    O23     O    0.36635   0.19463   0.07141   1.000
    O24     O    0.36647   0.07151   0.19463   1.000
    O25     O    0.07171   0.36664   0.36663   1.000
    O26     O    0.19465   0.36646   0.07134   1.000
    O27     O    0.36668   0.07175   0.36673   1.000
    O28     O    0.36742   0.19495   0.36711   1.000
    O29     O    0.07127   0.36628   0.19462   1.000
    O30     O    0.19464   0.07146   0.36653   1.000
    O31     O    0.36747   0.36693   0.19500   1.000
    O32     O    0.36665   0.36671   0.07171   1.000
    O33     O    0.07128   0.19462   0.36625   1.000
    O34     O    0.63260   0.80504   0.63288   1.000
    O35     O    0.80537   0.63354   0.92865   1.000
    O36     O    0.92875   0.63371   0.80537   1.000
    O37     O    0.63335   0.92824   0.63326   1.000
    O38     O    0.63366   0.80536   0.92858   1.000
    O39     O    0.92831   0.63335   0.63336   1.000
    O40     O    0.80493   0.63301   0.63278   1.000
    O41     O    0.63355   0.92849   0.80536   1.000
    O42     O    0.92874   0.80537   0.63373   1.000
    O43     O    0.63255   0.63307   0.80499   1.000
    O44     O    0.63337   0.63329   0.92828   1.000
    O45     O    0.80538   0.92853   0.63346   1.000
    Og46    Og   0.09214   0.40805   0.40812   1.000
    Og47    Og   0.40781   0.09186   0.09181   1.000
    Og48    Og   0.09177   0.40777   0.09179   1.000
    Og49    Og   0.40822   0.09211   0.40814   1.000
    Og50    Og   0.09177   0.09185   0.40779   1.000
    Og51    Og   0.40823   0.40806   0.09211   1.000
    Og52    Og   0.59180   0.90789   0.59185   1.000
    Og53    Og   0.90825   0.59222   0.90817   1.000
    Og54    Og   0.59221   0.90813   0.90815   1.000
    Og55    Og   0.90788   0.59194   0.59186   1.000
    Og56    Og   0.90825   0.90815   0.59220   1.000
    Og57    Og   0.59179   0.59193   0.90788   1.000
loop_
    _geom_bond_atom_site_label_1
    _geom_bond_atom_site_label_2
    _geom_bond_distance
    _geom_bond_site_symmetry_2
    _ccdc_geom_bond_type
    O26    C10       1.27712      .   S
    O26    Zn0       1.97161      .   S
    O23    C9        1.27707      .   S
    O23    Zn0       1.97132      .   S
    O32    C13       1.27714      .   S
    O32    Zn0       1.97175      .   S
    C10    O29       1.27718      .   S
    C9     O24       1.27707      .   S
    C13    O31       1.27737      .   S
    Zn0    O20       1.96695      .   S
    O29    Zn2       1.97163      .   S
    O24    Zn1       1.97112      .   S
    O31    Zn7       1.97392      .   S
    O20    Zn1       1.96669      .   S
    Zn2    O33       1.97176      .   S
    Zn2    O25       1.97209      .   S
    Zn1    O30       1.97126      .   S
    Zn1    O27       1.97156      .   S
    Zn7    O28       1.97383      .   S
    Zn7    O22       1.97393      .   S
    O33    C12       1.27714      .   S
    O30    C12       1.27707      .   S
    O25    C8        1.27708      .   S
    O27    C11       1.27702      .   S
    O28    C11       1.27745      .   S
    O22    C8        1.27739      .   S
    C14    O34       1.27745      .   S
    C14    O37       1.27702      .   S
    C17    O40       1.27736      .   S
    C17    O39       1.27712      .   S
    C18    O45       1.27709      .   S
    C18    O42       1.27713      .   S
    O40    Zn3       1.97394      .   S
    O34    Zn3       1.97383      .   S
    O37    Zn6       1.97153      .   S
    O39    Zn5       1.97187      .   S
    O45    Zn6       1.97125      .   S
    O42    Zn5       1.97175      .   S
    Zn3    O43       1.97392      .   S
    Zn6    O21       1.96669      .   S
    Zn6    O41       1.97112      .   S
    Zn5    O36       1.97194      .   S
    O21    Zn4       1.96695      .   S
    O43    C19       1.27737      .   S
    O41    C16       1.27707      .   S
    O36    C15       1.27718      .   S
    Zn4    O44       1.97175      .   S
    Zn4    O38       1.97130      .   S
    Zn4    O35       1.97161      .   S
    C19    O44       1.27713      .   S
    C16    O38       1.27709      .   S
    C15    O35       1.27713      .   S
    O20    Zn7       1.96899      .   S
    O20    Zn2       1.96710      .   S
    O21    Zn3       1.96897      .   S
    O21    Zn5       1.96710      .   S
    C8     Og46      0.49868      .   S
    C9     Og47      0.49838      .   S
    C10    Og48      0.49849      .   S
    C11    Og49      0.49867      .   S
    C12    Og50      0.49844      .   S
    C13    Og51      0.49869      .   S
    C14    Og52      0.49870      .   S
    C15    Og53      0.49810      .   S
    C16    Og54      0.49799      .   S
    C17    Og55      0.49868      .   S
    C18    Og56      0.49844      .   S
    C19    Og57      0.49869      .   S
