# CIF file generated by openbabel 2.4.90, see http://openbabel.sf.net
data_I
_chemical_name_common ''
_cell_length_a 18.407
_cell_length_b 18.416
_cell_length_c 18.411
_cell_angle_alpha 60.328
_cell_angle_beta 60.251
_cell_angle_gamma 60.283
_space_group_name_H-M_alt 'P 1'
_space_group_name_Hall 'P 1'
loop_
    _symmetry_equiv_pos_as_xyz
    x,y,z
loop_
    _atom_site_label
    _atom_site_type_symbol
    _atom_site_fract_x
    _atom_site_fract_y
    _atom_site_fract_z
    _atom_site_occupancy
    N0      N    0.00001   1.00000   0.49999   1.000
    N1      N    0.00001   0.50000   0.99999   1.000
    N2      N    0.00001   0.50000   0.49999   1.000
    N3      N    0.50001   0.50000   0.99999   1.000
    N4      N    0.50001   1.00000   0.99999   1.000
    N5      N    0.50001   1.00000   0.49999   1.000
    Zr6     Zr   0.24998   0.24993   0.24995   1.000
    O7      O    0.35434   0.14554   0.14553   1.000
    O8      O    0.14555   0.14554   0.35431   1.000
    O9      O    0.35444   0.35437   0.14561   1.000
    O10     O    0.14563   0.35437   0.35439   1.000
    O11     O    0.35444   0.14560   0.35439   1.000
    O12     O    0.14555   0.35431   0.14553   1.000
    Zr13    Zr   0.75004   0.75006   0.75004   1.000
    O14     O    0.85438   0.64563   0.64559   1.000
    O15     O    0.64568   0.85445   0.85444   1.000
    O16     O    0.64558   0.64562   0.85438   1.000
    O17     O    0.85447   0.64569   0.85444   1.000
    O18     O    0.85447   0.85446   0.64567   1.000
    O19     O    0.64558   0.85440   0.64559   1.000
loop_
    _geom_bond_atom_site_label_1
    _geom_bond_atom_site_label_2
    _geom_bond_distance
    _geom_bond_site_symmetry_2
    _ccdc_geom_bond_type
    Zr6    O7        2.72286      .   S
    N4     O7        3.79602  1_566   S
    Zr6    O8        2.72476      .   S
    N0     O8        3.79804  1_565   S
    Zr6    O9        2.72566      .   S
    N3     O9        3.79958  1_556   S
    Zr6    O10       2.72393      .   S
    N2     O10       3.79775      .   S
    Zr6    O11       2.72668      .   S
    N5     O11       3.80048  1_565   S
    Zr6    O12       2.72602      .   S
    N1     O12       3.79942  1_556   S
    Zr13   O14       2.72400      .   S
    N2     O14       3.79790  1_455   S
    Zr13   O15       2.72267      .   S
    N4     O15       3.79600      .   S
    Zr13   O16       2.72566      .   S
    N3     O16       3.79957      .   S
    Zr13   O17       2.72582      .   S
    N1     O17       3.79938  1_455   S
    Zr13   O18       2.72476      .   S
    N0     O18       3.79804  1_455   S
    Zr13   O19       2.72673      .   S
    N5     O19       3.80065      .   S
