# CIF file generated by openbabel 2.4.90, see http://openbabel.sf.net
data_I
_chemical_name_common ''
_cell_length_a 18.407
_cell_length_b 18.416
_cell_length_c 18.411
_cell_angle_alpha 60.328
_cell_angle_beta 60.251
_cell_angle_gamma 60.283
_space_group_name_H-M_alt 'P 1'
_space_group_name_Hall 'P 1'
loop_
    _symmetry_equiv_pos_as_xyz
    x,y,z
loop_
    _atom_site_label
    _atom_site_type_symbol
    _atom_site_fract_x
    _atom_site_fract_y
    _atom_site_fract_z
    _atom_site_occupancy
    Zr0     Zr   0.29404   0.29360   0.29378   1.000
    Zr1     Zr   0.29315   0.29323   0.11968   1.000
    Zr2     Zr   0.29319   0.11978   0.29325   1.000
    Zr3     Zr   0.11958   0.29314   0.29310   1.000
    Zr4     Zr   0.70598   0.70639   0.70621   1.000
    Zr5     Zr   0.70687   0.70677   0.88031   1.000
    Zr6     Zr   0.88044   0.70685   0.70687   1.000
    Zr7     Zr   0.70683   0.88021   0.70674   1.000
    Zr8     Zr   0.11130   0.38893   0.38901   1.000
    Zr9     Zr   0.38863   0.11097   0.11092   1.000
    Zr10    Zr   0.11086   0.38860   0.11089   1.000
    Zr11    Zr   0.38913   0.11125   0.38903   1.000
    Zr12    Zr   0.11086   0.11095   0.38861   1.000
    Zr13    Zr   0.38913   0.38895   0.11126   1.000
    Zr14    Zr   0.61089   0.88874   0.61096   1.000
    Zr15    Zr   0.88916   0.61140   0.88910   1.000
    Zr16    Zr   0.61138   0.88902   0.88907   1.000
    Zr17    Zr   0.88872   0.61106   0.61098   1.000
    Zr18    Zr   0.88916   0.88904   0.61138   1.000
    Zr19    Zr   0.61090   0.61105   0.88873   1.000
    Zr20    Zr   0.25005   0.25006   0.25005   1.000
    Zr21    Zr   0.74997   0.74994   0.74994   1.000
    Zr22    Zr   0.19509   0.36699   0.36721   1.000
    Zr23    Zr   0.36635   0.19463   0.07141   1.000
    Zr24    Zr   0.36647   0.07151   0.19463   1.000
    Zr25    Zr   0.07171   0.36664   0.36663   1.000
    Zr26    Zr   0.19465   0.36646   0.07134   1.000
    Zr27    Zr   0.36668   0.07175   0.36673   1.000
    Zr28    Zr   0.36742   0.19495   0.36711   1.000
    Zr29    Zr   0.07127   0.36628   0.19462   1.000
    Zr30    Zr   0.19464   0.07146   0.36653   1.000
    Zr31    Zr   0.36747   0.36693   0.19500   1.000
    Zr32    Zr   0.36665   0.36671   0.07171   1.000
    Zr33    Zr   0.07128   0.19462   0.36625   1.000
    Zr34    Zr   0.63260   0.80504   0.63288   1.000
    Zr35    Zr   0.80537   0.63354   0.92865   1.000
    Zr36    Zr   0.92875   0.63371   0.80537   1.000
    Zr37    Zr   0.63335   0.92824   0.63326   1.000
    Zr38    Zr   0.63366   0.80536   0.92858   1.000
    Zr39    Zr   0.92831   0.63335   0.63336   1.000
    Zr40    Zr   0.80493   0.63301   0.63278   1.000
    Zr41    Zr   0.63355   0.92849   0.80536   1.000
    Zr42    Zr   0.92874   0.80537   0.63373   1.000
    Zr43    Zr   0.63255   0.63307   0.80499   1.000
    Zr44    Zr   0.63337   0.63329   0.92828   1.000
    Zr45    Zr   0.80538   0.92853   0.63346   1.000
    O46     O    0.15275   0.37753   0.09112   1.000
    O47     O    0.24390   0.32984   0.09551   1.000
    O48     O    0.37749   0.15280   0.09117   1.000
    O49     O    0.32975   0.24393   0.09554   1.000
    O50     O    0.37789   0.37783   0.09148   1.000
    O51     O    0.32990   0.32997   0.09569   1.000
    O52     O    0.09106   0.37744   0.15276   1.000
    O53     O    0.37755   0.09124   0.15277   1.000
    O54     O    0.37830   0.37794   0.15313   1.000
    O55     O    0.27160   0.27164   0.18487   1.000
    O56     O    0.09542   0.32971   0.24386   1.000
    O57     O    0.32983   0.09565   0.24394   1.000
    O58     O    0.33075   0.33026   0.24439   1.000
    O59     O    0.27162   0.18492   0.27165   1.000
    O60     O    0.09543   0.24388   0.32968   1.000
    O61     O    0.09565   0.32989   0.32987   1.000
    O62     O    0.24392   0.09562   0.32989   1.000
    O63     O    0.32994   0.09577   0.32999   1.000
    O64     O    0.33073   0.24428   0.33044   1.000
    O65     O    0.24457   0.33030   0.33049   1.000
    O66     O    0.09107   0.15279   0.37743   1.000
    O67     O    0.15275   0.09121   0.37757   1.000
    O68     O    0.09151   0.37778   0.37782   1.000
    O69     O    0.37790   0.09150   0.37788   1.000
    O70     O    0.37827   0.15310   0.37807   1.000
    O71     O    0.15320   0.37796   0.37811   1.000
    O72     O    0.62175   0.84689   0.62192   1.000
    O73     O    0.62212   0.90849   0.62211   1.000
    O74     O    0.84682   0.62203   0.62188   1.000
    O75     O    0.90851   0.62221   0.62217   1.000
    O76     O    0.84727   0.90879   0.62242   1.000
    O77     O    0.90895   0.84721   0.62255   1.000
    O78     O    0.75545   0.66970   0.66950   1.000
    O79     O    0.66929   0.75572   0.66955   1.000
    O80     O    0.67009   0.90423   0.67000   1.000
    O81     O    0.90437   0.67010   0.67012   1.000
    O82     O    0.75610   0.90437   0.67010   1.000
    O83     O    0.90459   0.75611   0.67030   1.000
    O84     O    0.66927   0.66973   0.75560   1.000
    O85     O    0.72840   0.81507   0.72834   1.000
    O86     O    0.67019   0.90435   0.75605   1.000
    O87     O    0.90459   0.67028   0.75612   1.000
    O88     O    0.72842   0.72835   0.81512   1.000
    O89     O    0.62172   0.62206   0.84686   1.000
    O90     O    0.62247   0.90875   0.84722   1.000
    O91     O    0.90896   0.62256   0.84724   1.000
    O92     O    0.67012   0.67003   0.90430   1.000
    O93     O    0.67027   0.75607   0.90445   1.000
    O94     O    0.75612   0.67015   0.90448   1.000
    O95     O    0.62213   0.62217   0.90851   1.000
    O96     O    0.62252   0.84719   0.90882   1.000
    O97     O    0.84727   0.62247   0.90887   1.000
    O98     O    0.27204   0.27183   0.27192   1.000
    O99     O    0.18482   0.27160   0.27158   1.000
    O100    O    0.72797   0.72816   0.72808   1.000
    O101    O    0.81520   0.72839   0.72840   1.000
    N102    N    0.00001   1.00000   0.49999   1.000
    O103    O    0.04111   0.04115   0.45868   1.000
    O104    O    0.95891   0.95885   0.54130   1.000
    N105    N    0.00001   0.50000   0.99999   1.000
    O106    O    0.95891   0.54131   0.95884   1.000
    O107    O    0.04111   0.45868   0.04112   1.000
    N108    N    0.00001   0.50000   0.49999   1.000
    O109    O    0.95873   0.54119   0.54115   1.000
    O110    O    0.04129   0.45881   0.45883   1.000
    N111    N    0.50001   0.50000   0.99999   1.000
    O112    O    0.45889   0.45881   0.04126   1.000
    O113    O    0.54113   0.54118   0.95872   1.000
    N114    N    0.50001   1.00000   0.99999   1.000
    O115    O    0.54132   0.95884   0.95884   1.000
    O116    O    0.45870   0.04115   0.04112   1.000
    N117    N    0.50001   1.00000   0.49999   1.000
    O118    O    0.45889   0.04127   0.45884   1.000
    O119    O    0.54113   0.95873   0.54114   1.000
loop_
    _geom_bond_atom_site_label_1
    _geom_bond_atom_site_label_2
    _geom_bond_distance
    _geom_bond_site_symmetry_2
    _ccdc_geom_bond_type
    Zr26   O46       0.63856      .   S
    Zr10   O46       0.63856      .   S
    Zr26   O47       0.98581      .   S
    Zr1    O47       0.98581      .   S
    Zr23   O48       0.63854      .   S
    Zr9    O48       0.63854      .   S
    Zr23   O49       0.98566      .   S
    Zr1    O49       0.98566      .   S
    Zr32   O50       0.63857      .   S
    Zr13   O50       0.63857      .   S
    Zr32   O51       0.98587      .   S
    Zr1    O51       0.98587      .   S
    Zr10   O52       0.63859      .   S
    Zr29   O52       0.63859      .   S
    Zr9    O53       0.63854      .   S
    Zr24   O53       0.63854      .   S
    Zr13   O54       0.63868      .   S
    Zr31   O54       0.63868      .   S
    Zr1    O55       0.98348      .   S
    Zr20   O55       0.98348      .   S
    Zr29   O56       0.98582      .   S
    Zr3    O56       0.98582      .   S
    Zr24   O57       0.98556      .   S
    Zr2    O57       0.98556      .   S
    Zr31   O58       0.98696      .   S
    Zr0    O58       0.98696      .   S
    Zr20   O59       0.98335      .   S
    Zr2    O59       0.98335      .   S
    Zr3    O60       0.98588      .   S
    Zr33   O60       0.98588      .   S
    Zr3    O61       0.98605      .   S
    Zr25   O61       0.98605      .   S
    Zr2    O62       0.98563      .   S
    Zr30   O62       0.98563      .   S
    Zr2    O63       0.98578      .   S
    Zr27   O63       0.98578      .   S
    Zr0    O64       0.98691      .   S
    Zr28   O64       0.98691      .   S
    Zr0    O65       0.98696      .   S
    Zr22   O65       0.98696      .   S
    Zr33   O66       0.63857      .   S
    Zr12   O66       0.63857      .   S
    Zr30   O67       0.63854      .   S
    Zr12   O67       0.63854      .   S
    Zr25   O68       0.63854      .   S
    Zr8    O68       0.63854      .   S
    Zr27   O69       0.63851      .   S
    Zr11   O69       0.63851      .   S
    Zr28   O70       0.63872      .   S
    Zr11   O70       0.63872      .   S
    Zr22   O71       0.63870      .   S
    Zr8    O71       0.63870      .   S
    Zr14   O72       0.63873      .   S
    Zr34   O72       0.63873      .   S
    Zr14   O73       0.63851      .   S
    Zr37   O73       0.63851      .   S
    Zr17   O74       0.63868      .   S
    Zr40   O74       0.63868      .   S
    Zr17   O75       0.63856      .   S
    Zr39   O75       0.63856      .   S
    Zr18   O76       0.63854      .   S
    Zr45   O76       0.63854      .   S
    Zr18   O77       0.63857      .   S
    Zr42   O77       0.63857      .   S
    Zr40   O78       0.98697      .   S
    Zr4    O78       0.98697      .   S
    Zr34   O79       0.98692      .   S
    Zr4    O79       0.98692      .   S
    Zr37   O80       0.98576      .   S
    Zr7    O80       0.98576      .   S
    Zr39   O81       0.98593      .   S
    Zr6    O81       0.98593      .   S
    Zr45   O82       0.98562      .   S
    Zr7    O82       0.98562      .   S
    Zr42   O83       0.98588      .   S
    Zr6    O83       0.98588      .   S
    Zr4    O84       0.98696      .   S
    Zr43   O84       0.98696      .   S
    Zr7    O85       0.98335      .   S
    Zr21   O85       0.98335      .   S
    Zr7    O86       0.98556      .   S
    Zr41   O86       0.98556      .   S
    Zr6    O87       0.98597      .   S
    Zr36   O87       0.98597      .   S
    Zr21   O88       0.98348      .   S
    Zr5    O88       0.98348      .   S
    Zr43   O89       0.63868      .   S
    Zr19   O89       0.63868      .   S
    Zr41   O90       0.63854      .   S
    Zr16   O90       0.63854      .   S
    Zr36   O91       0.63859      .   S
    Zr15   O91       0.63859      .   S
    Zr5    O92       0.98587      .   S
    Zr44   O92       0.98587      .   S
    Zr5    O93       0.98565      .   S
    Zr38   O93       0.98565      .   S
    Zr5    O94       0.98581      .   S
    Zr35   O94       0.98581      .   S
    Zr19   O95       0.63856      .   S
    Zr44   O95       0.63856      .   S
    Zr16   O96       0.63854      .   S
    Zr38   O96       0.63854      .   S
    Zr15   O97       0.63857      .   S
    Zr35   O97       0.63857      .   S
    Zr20   O98       0.98449      .   S
    Zr0    O98       0.98449      .   S
    Zr20   O99       0.98355      .   S
    Zr3    O99       0.98355      .   S
    Zr21   O100      0.98449      .   S
    Zr4    O100      0.98449      .   S
    Zr21   O101      0.98355      .   S
    Zr6    O101      0.98355      .   S
    N102   O103      1.07328  1_565   S
    Zr12   O103      1.82094      .   S
    N102   O104      1.07329  1_455   S
    Zr18   O104      1.82094      .   S
    N105   O106      1.07357  1_455   S
    Zr15   O106      1.82072      .   S
    N105   O107      1.07340  1_556   S
    Zr10   O107      1.82114      .   S
    N108   O109      1.07390  1_455   S
    Zr17   O109      1.82192      .   S
    N108   O110      1.07382      .   S
    Zr8    O110      1.82184      .   S
    N111   O112      1.07392  1_556   S
    Zr13   O112      1.82195      .   S
    N111   O113      1.07392      .   S
    Zr19   O113      1.82196      .   S
    N114   O115      1.07334      .   S
    Zr16   O115      1.82032      .   S
    N114   O116      1.07316  1_566   S
    Zr9    O116      1.82073      .   S
    N117   O118      1.07380  1_565   S
    Zr11   O118      1.82181      .   S
    N117   O119      1.07392      .   S
    Zr14   O119      1.82197      .   S
