# CIF file generated by openbabel 2.4.90, see http://openbabel.sf.net
data_I
_chemical_name_common ''
_cell_length_a 15.191
_cell_length_b 15.284
_cell_length_c 22.58
_cell_angle_alpha 107.064
_cell_angle_beta 106.784
_cell_angle_gamma 97.779
_space_group_name_H-M_alt 'P 1'
_space_group_name_Hall 'P 1'
loop_
    _symmetry_equiv_pos_as_xyz
    x,y,z
loop_
    _atom_site_label
    _atom_site_type_symbol
    _atom_site_fract_x
    _atom_site_fract_y
    _atom_site_fract_z
    _atom_site_occupancy
    H0      H    0.27301   0.16431   0.50001   1.000
    H1      H    0.27281   0.66421   0.99994   1.000
    H2      H    0.27278   0.66417   0.49990   1.000
    H3      H    0.77281   0.16420   0.99994   1.000
    H4      H    0.77276   0.16420   0.49991   1.000
    H5      H    0.77302   0.66432   0.50001   1.000
    H6      H    0.22719   0.33607   0.50006   1.000
    H7      H    0.22739   0.83618   0.00010   1.000
    H8      H    0.22730   0.83616   0.50011   1.000
    H9      H    0.72731   0.33618   0.50011   1.000
    H10     H    0.72720   0.83608   0.50006   1.000
    C11     C    0.21100   0.03509   0.37667   1.000
    C12     C    0.22641   0.01659   0.44010   1.000
    C13     C    0.22639   0.01661   0.94012   1.000
    C14     C    0.22616   0.51645   0.44002   1.000
    C15     C    0.22624   0.51651   0.94004   1.000
    C16     C    0.72616   0.01648   0.44000   1.000
    C17     C    0.72620   0.01649   0.94004   1.000
    C18     C    0.72643   0.51661   0.44012   1.000
    C19     C    0.72637   0.51659   0.94012   1.000
    C20     C    0.21328   0.42368   0.44000   1.000
    C21     C    0.21329   0.42374   0.94007   1.000
    C22     C    0.21347   0.92381   0.44014   1.000
    C23     C    0.21345   0.92384   0.94015   1.000
    C24     C    0.71347   0.42384   0.44010   1.000
    C25     C    0.71343   0.42382   0.94015   1.000
    C26     C    0.71328   0.92369   0.44006   1.000
    C27     C    0.71329   0.92371   0.94000   1.000
    C28     C    0.27371   0.48378   0.05992   1.000
    C29     C    0.27377   0.48379   0.55994   1.000
    C30     C    0.27397   0.98389   0.06001   1.000
    C31     C    0.27393   0.98388   0.56001   1.000
    C32     C    0.77395   0.48388   0.06001   1.000
    C33     C    0.77392   0.48391   0.56000   1.000
    C34     C    0.77371   0.98375   0.05992   1.000
    C35     C    0.77376   0.98380   0.55994   1.000
    C36     C    0.28689   0.07668   0.05999   1.000
    C37     C    0.28685   0.07667   0.55999   1.000
    C38     C    0.28671   0.57655   0.05990   1.000
    C39     C    0.28671   0.57656   0.55991   1.000
    C40     C    0.78668   0.07653   0.05990   1.000
    C41     C    0.78670   0.07658   0.55991   1.000
    C42     C    0.78687   0.57665   0.05999   1.000
    C43     C    0.78686   0.57668   0.56000   1.000
    C44     C    0.26219   0.09238   0.50003   1.000
    C45     C    0.26198   0.59228   0.99995   1.000
    C46     C    0.26198   0.59224   0.49994   1.000
    C47     C    0.76198   0.09227   0.99995   1.000
    C48     C    0.76196   0.09227   0.49995   1.000
    C49     C    0.76219   0.59239   0.50004   1.000
    C50     C    0.23800   0.40800   0.00000   1.000
    C51     C    0.23800   0.40799   0.50002   1.000
    C52     C    0.23821   0.90811   0.00000   1.000
    C53     C    0.23815   0.90809   0.50009   1.000
    C54     C    0.73819   0.40810   0.90000   1.000
    C55     C    0.73816   0.40812   0.50009   1.000
    C56     C    0.73797   0.90797   0.00000   1.000
    C57     C    0.73801   0.90801   0.50002   1.000
loop_
    _geom_bond_atom_site_label_1
    _geom_bond_atom_site_label_2
    _geom_bond_distance
    _geom_bond_site_symmetry_2
    _ccdc_geom_bond_type
    H7     C52       1.09022      .   S
    C38    C28       1.40497      .   S
    C38    C45       1.39755  1_554   S
    C40    C34       1.40518  1_545   S
    C40    C47       1.39756  1_554   S
    C34    C56       1.39737      .   S
    C28    C50       1.39737      .   S
    C42    C32       1.40504      .   S
    C36    C30       1.40525  1_545   S
    C30    C52       1.39866      .   S
    C11    C12       1.49933      .   S
    C16    C26       1.40549  1_545   S
    C16    C48       1.39792      .   S
    C20    C14       1.40466      .   S
    C20    C51       1.39868      .   S
    C14    C46       1.39752      .   S
    C26    C57       1.39743      .   S
    C24    C18       1.40463      .   S
    C24    C55       1.39833      .   S
    C12    C22       1.40528  1_545   S
    C12    C44       1.39757      .   S
    C18    C49       1.39742      .   S
    C22    C53       1.39746      .   S
    H2     C46       1.08960      .   S
    H4     C48       1.08961      .   S
    C46    C39       1.39761      .   S
    C48    C41       1.39743      .   S
    H0     C44       1.08954      .   S
    H5     C49       1.08963      .   S
    C57    H10       1.08962      .   S
    C57    C35       1.39752      .   S
    C51    H6        1.08960      .   S
    C51    C29       1.39754      .   S
    C44    C37       1.39759      .   S
    C49    C43       1.39761      .   S
    C55    H9        1.08959      .   S
    C55    C33       1.39730      .   S
    C53    H8        1.08959      .   S
    C53    C31       1.39745      .   S
    C41    C35       1.40525  1_545   S
    C39    C29       1.40504      .   S
    C37    C31       1.40525  1_545   S
    C33    C43       1.40489      .   S
    C27    C17       1.40473  1_565   S
    C27    C56       1.39866  1_556   S
    C15    C21       1.40504      .   S
    C15    C45       1.39720      .   S
    C17    C47       1.39719      .   S
    C21    C50       1.39716  1_556   S
    C19    C25       1.40499      .   S
    C13    C23       1.40522  1_545   S
    C25    C54       1.05580      .   S
    C23    C52       1.39539  1_556   S
    H3     C47       1.08956      .   S
    H1     C45       1.08954      .   S
