# CIF file generated by openbabel 2.4.90, see http://openbabel.sf.net
data_I
_chemical_name_common ''
_cell_length_a 15.191
_cell_length_b 15.284
_cell_length_c 22.58
_cell_angle_alpha 107.064
_cell_angle_beta 106.784
_cell_angle_gamma 97.779
_space_group_name_H-M_alt 'P 1'
_space_group_name_Hall 'P 1'
loop_
    _symmetry_equiv_pos_as_xyz
    x,y,z
loop_
    _atom_site_label
    _atom_site_type_symbol
    _atom_site_fract_x
    _atom_site_fract_y
    _atom_site_fract_z
    _atom_site_occupancy
    H0      H    0.51571   0.16842   0.33575   1.000
    H1      H    0.51571   0.16833   0.83575   1.000
    H2      H    0.51577   0.66797   0.33560   1.000
    H3      H    0.51572   0.66812   0.83569   1.000
    H4      H    0.00000   0.16795   0.33567   1.000
    H5      H    0.00000   0.16814   0.83569   1.000
    H6      H    0.00000   0.66839   0.33574   1.000
    H7      H    0.00000   0.66835   0.83575   1.000
    H8      H    0.07421   0.46645   0.23076   1.000
    H9      H    0.07426   0.46651   0.73075   1.000
    H10     H    0.07480   0.96648   0.23081   1.000
    H11     H    0.07451   0.96651   0.73079   1.000
    H12     H    0.57478   0.46650   0.23081   1.000
    H13     H    0.57450   0.46651   0.73079   1.000
    H14     H    0.57420   0.96646   0.23075   1.000
    H15     H    0.57425   0.96649   0.73070   1.000
    H16     H    0.31929   0.16804   0.33587   1.000
    H17     H    0.31916   0.16791   0.83580   1.000
    H18     H    0.31900   0.66769   0.33570   1.000
    H19     H    0.31904   0.66775   0.83573   1.000
    H20     H    0.81898   0.16770   0.33571   1.000
    H21     H    0.81903   0.16776   0.83572   1.000
    H22     H    0.81929   0.66804   0.33587   1.000
    H23     H    0.81916   0.66789   0.83580   1.000
    H24     H    0.15633   0.26417   0.23087   1.000
    H25     H    0.15638   0.26422   0.73087   1.000
    H26     H    0.15650   0.76428   0.23090   1.000
    H27     H    0.15646   0.76429   0.73092   1.000
    H28     H    0.65650   0.26430   0.23094   1.000
    H29     H    0.65645   0.26429   0.73092   1.000
    H30     H    0.65634   0.76417   0.23086   1.000
    H31     H    0.65637   0.76421   0.73087   1.000
    H32     H    0.98430   0.33196   0.16430   1.000
    H33     H    0.98425   0.33214   0.66432   1.000
    H34     H    0.98422   0.83234   0.16430   1.000
    H35     H    0.98423   0.83230   0.66436   1.000
    H36     H    0.48421   0.33236   0.16434   1.000
    H37     H    0.48422   0.33229   0.66436   1.000
    H38     H    0.48430   0.83198   0.16430   1.000
    H39     H    0.48424   0.83212   0.66432   1.000
    H40     H    0.42556   0.03377   0.26917   1.000
    H41     H    0.42528   0.03376   0.76915   1.000
    H42     H    0.42497   0.53371   0.26910   1.000
    H43     H    0.42503   0.53374   0.76911   1.000
    H44     H    0.92497   0.03370   0.26911   1.000
    H45     H    0.92502   0.03375   0.76910   1.000
    H46     H    0.92557   0.53375   0.26917   1.000
    H47     H    0.92527   0.53376   0.76915   1.000
    H48     H    0.18059   0.33203   0.16405   1.000
    H49     H    0.18063   0.33209   0.66407   1.000
    H50     H    0.18090   0.83238   0.16422   1.000
    H51     H    0.18077   0.83223   0.66415   1.000
    H52     H    0.68090   0.33238   0.16422   1.000
    H53     H    0.68075   0.33224   0.66415   1.000
    H54     H    0.68059   0.83202   0.16405   1.000
    H55     H    0.68063   0.83208   0.66407   1.000
    H56     H    0.34373   0.23602   0.26910   1.000
    H57     H    0.34367   0.23600   0.76909   1.000
    H58     H    0.34356   0.73589   0.26903   1.000
    H59     H    0.34360   0.73593   0.76904   1.000
    H60     H    0.84354   0.23589   0.26904   1.000
    H61     H    0.84359   0.23594   0.76904   1.000
    H62     H    0.84372   0.73600   0.26910   1.000
    H63     H    0.84368   0.73601   0.76909   1.000
    O64     O    0.51120   0.64583   0.78950   1.000
    O65     O    0.12032   0.01619   0.22744   1.000
    O66     O    0.12002   0.01622   0.72740   1.000
    O67     O    0.11963   0.51620   0.22734   1.000
    H68     H    0.22716   0.33606   0.70000   1.000
    C69     C    0.21087   0.03510   0.87666   1.000
    C70     C    0.21065   0.53497   0.37658   1.000
    C71     C    0.21071   0.53503   0.87660   1.000
    C72     C    0.71064   0.03500   0.37658   1.000
    C73     C    0.71070   0.03502   0.87660   1.000
    C74     C    0.71101   0.53510   0.37667   1.000
    C75     C    0.71086   0.53508   0.87666   1.000
    O76     O    0.48874   0.35481   0.21053   1.000
    O77     O    0.48875   0.35475   0.71054   1.000
    O78     O    0.48881   0.85439   0.21040   1.000
    O79     O    0.48876   0.85455   0.71050   1.000
    O80     O    0.98879   0.35435   0.21048   1.000
    C81     C    0.16501   0.34155   0.37674   1.000
    C82     C    0.16504   0.34166   0.87675   1.000
    C83     C    0.16513   0.84176   0.37682   1.000
    C84     C    0.16513   0.84178   0.87682   1.000
    C85     C    0.66513   0.34179   0.37682   1.000
    C86     C    0.66511   0.34176   0.87682   1.000
    C87     C    0.66502   0.84157   0.37670   1.000
    C88     C    0.66502   0.84163   0.87670   1.000
    C89     C    0.28901   0.46520   0.12333   1.000
    C90     C    0.28907   0.46522   0.62335   1.000
    C91     C    0.28938   0.96530   0.12342   1.000
    C92     C    0.28924   0.96528   0.62341   1.000
    C93     C    0.78937   0.46529   0.12342   1.000
    C94     C    0.78923   0.46530   0.62341   1.000
    C95     C    0.78900   0.96518   0.12333   1.000
    C96     C    0.78906   0.96523   0.62335   1.000
    C97     C    0.33506   0.15880   0.12332   1.000
    C98     C    0.33505   0.15879   0.62332   1.000
    C99     C    0.33495   0.65861   0.12324   1.000
    C100    C    0.33497   0.65867   0.62324   1.000
    C101    C    0.83494   0.15859   0.12323   1.000
    C102    C    0.83496   0.15869   0.62324   1.000
    C103    C    0.83505   0.65878   0.12331   1.000
    C104    C    0.83505   0.65880   0.62332   1.000
    C105    C    0.26214   0.09239   0.40000   1.000
    O106    O    0.01124   0.14562   0.28948   1.000
    O107    O    0.01121   0.14585   0.78950   1.000
    O108    O    0.01121   0.64611   0.28956   1.000
    O109    O    0.01121   0.64608   0.78957   1.000
    O110    O    0.51120   0.14614   0.28957   1.000
    O111    O    0.51120   0.14607   0.78956   1.000
    O112    O    0.51124   0.64565   0.28948   1.000
    O113    O    0.11973   0.51623   0.72735   1.000
    O114    O    0.61963   0.01622   0.22734   1.000
    O115    O    0.61971   0.01623   0.72735   1.000
    O116    O    0.62032   0.51619   0.22744   1.000
    O117    O    0.62001   0.51620   0.72740   1.000
    O118    O    0.16635   0.09787   0.36864   1.000
    O119    O    0.16629   0.09795   0.86867   1.000
    O120    O    0.16614   0.59789   0.36860   1.000
    O121    O    0.16620   0.59795   0.86865   1.000
    O122    O    0.66614   0.09792   0.36864   1.000
    O123    O    0.66618   0.09793   0.86865   1.000
    O124    O    0.66636   0.59789   0.36864   1.000
    O125    O    0.66628   0.59793   0.86867   1.000
    O126    O    0.24817   0.48859   0.33784   1.000
    O127    O    0.24825   0.48865   0.83788   1.000
    O128    O    0.24873   0.98879   0.33804   1.000
    O129    O    0.24850   0.98874   0.83798   1.000
    O130    O    0.74873   0.48881   0.33805   1.000
    O131    O    0.74848   0.48874   0.83798   1.000
    O132    O    0.74817   0.98859   0.33785   1.000
    O133    O    0.74825   0.98863   0.83787   1.000
    O134    O    0.27791   0.14401   0.28967   1.000
    O135    O    0.27774   0.14396   0.78962   1.000
    O136    O    0.27752   0.64385   0.28950   1.000
    O137    O    0.27757   0.64389   0.78950   1.000
    O138    O    0.77751   0.14386   0.28954   1.000
    O139    O    0.77756   0.14390   0.78955   1.000
    O140    O    0.77791   0.64400   0.28967   1.000
    O141    O    0.77773   0.64395   0.78962   1.000
    O142    O    0.10741   0.21116   0.22751   1.000
    O143    O    0.10740   0.21128   0.72753   1.000
    O144    O    0.10743   0.71141   0.22757   1.000
    O145    O    0.10741   0.71141   0.72757   1.000
    O146    O    0.60742   0.21143   0.22757   1.000
    O147    O    0.60740   0.21141   0.72757   1.000
    O148    O    0.60741   0.71118   0.22751   1.000
    O149    O    0.60739   0.71126   0.72752   1.000
    O150    O    0.20134   0.27050   0.36872   1.000
    O151    O    0.20127   0.27055   0.86872   1.000
    O152    O    0.20124   0.77058   0.36870   1.000
    O153    O    0.20126   0.77061   0.86877   1.000
    O154    O    0.70124   0.27061   0.36877   1.000
    O155    O    0.70124   0.27060   0.86878   1.000
    O156    O    0.70133   0.77051   0.36872   1.000
    O157    O    0.70127   0.77054   0.86872   1.000
    O158    O    0.08893   0.34931   0.33813   1.000
    O159    O    0.08898   0.34953   0.83815   1.000
    O160    O    0.08917   0.84979   0.33820   1.000
    O161    O    0.08913   0.84976   0.83823   1.000
    O162    O    0.58917   0.34982   0.33820   1.000
    O163    O    0.58910   0.34974   0.83823   1.000
    O164    O    0.58893   0.84935   0.33814   1.000
    O165    O    0.58897   0.84950   0.83810   1.000
    O166    O    0.98876   0.35457   0.71050   1.000
    O167    O    0.98874   0.85479   0.21053   1.000
    O168    O    0.98874   0.85476   0.71054   1.000
    O169    O    0.37949   0.48401   0.27200   1.000
    O170    O    0.37958   0.48402   0.77250   1.000
    O171    O    0.38019   0.98399   0.27260   1.000
    O172    O    0.37988   0.98400   0.77257   1.000
    O173    O    0.88018   0.48399   0.27260   1.000
    O174    O    0.87987   0.48401   0.77257   1.000
    O175    O    0.87948   0.98399   0.27250   1.000
    O176    O    0.87957   0.98402   0.77251   1.000
    O177    O    0.33364   0.40241   0.13137   1.000
    O178    O    0.33370   0.40242   0.63138   1.000
    O179    O    0.33388   0.90237   0.13137   1.000
    O180    O    0.33380   0.90241   0.63100   1.000
    O181    O    0.83386   0.40236   0.13137   1.000
    O182    O    0.83379   0.40243   0.63140   1.000
    O183    O    0.83364   0.90239   0.13137   1.000
    O184    O    0.83369   0.90243   0.63138   1.000
    O185    O    0.25171   0.01159   0.16209   1.000
    O186    O    0.25149   0.01154   0.66204   1.000
    O187    O    0.25113   0.51138   0.16189   1.000
    O188    O    0.25124   0.51143   0.66193   1.000
    O189    O    0.75113   0.01138   0.16189   1.000
    O190    O    0.75122   0.01144   0.66193   1.000
    O191    O    0.75171   0.51158   0.16209   1.000
    O192    O    0.75149   0.51154   0.66204   1.000
    O193    O    0.22194   0.35613   0.21026   1.000
    O194    O    0.22199   0.35617   0.71027   1.000
    O195    O    0.22235   0.85628   0.21000   1.000
    O196    O    0.22218   0.85622   0.71034   1.000
    O197    O    0.72235   0.35628   0.21040   1.000
    O198    O    0.72216   0.35623   0.71034   1.000
    O199    O    0.72194   0.85612   0.21026   1.000
    O200    O    0.72199   0.85616   0.71027   1.000
    O201    O    0.39256   0.28915   0.27252   1.000
    O202    O    0.39254   0.28912   0.77250   1.000
    O203    O    0.39255   0.78889   0.27240   1.000
    O204    O    0.39253   0.78897   0.77248   1.000
    O205    O    0.89254   0.28888   0.27240   1.000
    O206    O    0.89252   0.28899   0.77248   1.000
    O207    O    0.89256   0.78913   0.27252   1.000
    O208    O    0.89254   0.78912   0.77253   1.000
    O209    O    0.29863   0.22981   0.13128   1.000
    O210    O    0.29863   0.22980   0.63129   1.000
    O211    O    0.29871   0.72973   0.13123   1.000
    O212    O    0.29865   0.72974   0.63123   1.000
    O213    O    0.79870   0.22971   0.13123   1.000
    O214    O    0.79864   0.22977   0.63123   1.000
    O215    O    0.79862   0.72979   0.13128   1.000
    O216    O    0.79863   0.72981   0.63129   1.000
    O217    O    0.41115   0.15117   0.16197   1.000
    O218    O    0.41110   0.15112   0.66199   1.000
    O219    O    0.41096   0.65078   0.16188   1.000
    O220    O    0.41099   0.65091   0.66190   1.000
    O221    O    0.91093   0.15074   0.16188   1.000
    O222    O    0.91099   0.15094   0.66190   1.000
    O223    O    0.91114   0.65114   0.16197   1.000
    O224    O    0.91110   0.65113   0.66200   1.000
loop_
    _geom_bond_atom_site_label_1
    _geom_bond_atom_site_label_2
    _geom_bond_distance
    _geom_bond_site_symmetry_2
    _ccdc_geom_bond_type
    C101   O213      1.27335      .   S
    C101   O221      1.27513      .   S
    C99    O211      1.27336      .   S
    C99    O219      1.27501      .   S
    C103   O215      1.27354      .   S
    C103   O223      1.27491      .   S
    C97    O209      1.27353      .   S
    C97    O217      1.27478      .   S
    C89    O177      1.27325      .   S
    C89    O187      1.27510      .   S
    C95    O183      1.27325      .   S
    C95    O189      1.27522  1_565   S
    C91    O179      1.27330      .   S
    C91    O185      1.27518  1_565   S
    C93    O181      1.27331      .   S
    C93    O191      1.27498      .   S
    H48    O193      0.97586      .   S
    H54    O199      0.97585      .   S
    H52    O197      0.97583      .   S
    H50    O195      0.96887      .   S
    H34    O167      0.97679      .   S
    H32    O80       0.97585      .   S
    H38    O78       0.97408      .   S
    H36    O76       0.97588      .   S
    O114   H14       0.99173  1_545   S
    O67    H8        0.99169      .   S
    O116   H12       0.99153      .   S
    O65    H10       0.99159  1_545   S
    O142   H24       0.99136      .   S
    O148   H30       0.99138      .   S
    O144   H26       0.99160      .   S
    O146   H28       0.99125      .   S
    H58    O203      0.99180      .   S
    H60    O205      0.99181      .   S
    H42    O169      0.98586      .   S
    H62    O207      0.99133      .   S
    H56    O201      0.99134      .   S
    H44    O175      0.99155  1_545   S
    H46    O173      0.99155      .   S
    H40    O171      0.99163  1_545   S
    O112   H2        0.97435      .   S
    O106   H4        1.06918      .   S
    O136   H18       0.97631      .   S
    O138   H20       0.97577      .   S
    O108   H6        1.06869      .   S
    O110   H0        0.97569      .   S
    O140   H22       0.97580      .   S
    O134   H16       0.97582      .   S
    O126   C70       1.27514      .   S
    O132   C72       1.27518  1_565   S
    O130   C74       1.27501      .   S
    O158   C81       1.27513      .   S
    O164   C87       1.27472      .   S
    O160   C83       1.27542      .   S
    O162   C85       1.27546      .   S
    O120   C70       1.27349      .   S
    O122   C72       1.27329      .   S
    O124   C74       1.27323      .   S
    O152   C83       1.27313      .   S
    O156   C87       1.27320      .   S
    O150   C81       1.27326      .   S
    O154   C85       1.27310      .   S
    C102   O214      1.27347      .   S
    C102   O222      1.27497      .   S
    C100   O212      1.27346      .   S
    C100   O220      1.27498      .   S
    C104   O216      1.27353      .   S
    C104   O224      1.27488      .   S
    C98    O210      1.27353      .   S
    C98    O218      1.27481      .   S
    C96    O184      1.27324      .   S
    C96    O190      1.27528  1_565   S
    C90    O178      1.27324      .   S
    C90    O188      1.27507      .   S
    C94    O182      1.27331      .   S
    C94    O192      1.27508      .   S
    C92    O180      1.27144      .   S
    C92    O186      1.27521  1_565   S
    H55    O200      0.97572      .   S
    H49    O194      0.97572      .   S
    H53    O198      0.97579      .   S
    H51    O196      0.97579      .   S
    H39    O79       0.97570      .   S
    H33    O166      0.97577      .   S
    H37    O77       0.97571      .   S
    H35    O168      0.97578      .   S
    O113   H9        0.99166      .   S
    O115   H15       0.99115  1_545   S
    O117   H13       0.99162      .   S
    O66    H11       0.99173  1_545   S
    O149   H31       0.99132      .   S
    O143   H25       0.99138      .   S
    O145   H27       0.99127      .   S
    O147   H29       0.99127      .   S
    H61    O206      0.99131      .   S
    H59    O204      0.99126      .   S
    H63    O208      0.99131      .   S
    H57    O202      0.99155      .   S
    H45    O176      0.99157  1_545   S
    H43    O170      0.99130      .   S
    H47    O174      0.99154      .   S
    H41    O172      0.99162  1_545   S
    O107   H5        1.06892      .   S
    O137   H19       0.97678      .   S
    O64    H3        0.97592      .   S
    O139   H21       0.97575      .   S
    O111   H1        0.97589      .   S
    O109   H7        1.06871      .   S
    O135   H17       0.97567      .   S
    O141   H23       0.97568      .   S
    O133   C73       1.27537  1_565   S
    O127   C71       1.27508      .   S
    O129   C69       1.27534  1_565   S
    O131   C75       1.27516      .   S
    O165   C88       1.27526      .   S
    O159   C82       1.27536      .   S
    O163   C86       1.27538      .   S
    O161   C84       1.27540      .   S
    O121   C71       1.27333      .   S
    O123   C73       1.27332      .   S
    O119   C69       1.27324      .   S
    O125   C75       1.27326      .   S
    O157   C88       1.27313      .   S
    O151   C82       1.27312      .   S
    O153   C84       1.27308      .   S
    O155   C86       1.27310      .   S
    O118   C105      1.44857      .   S
    O128   C105      1.71880  1_565   S
