# CIF file generated by openbabel 2.4.90, see http://openbabel.sf.net
data_I
_chemical_name_common ''
_cell_length_a 15.191
_cell_length_b 15.284
_cell_length_c 22.58
_cell_angle_alpha 107.064
_cell_angle_beta 106.784
_cell_angle_gamma 97.779
_space_group_name_H-M_alt 'P 1'
_space_group_name_Hall 'P 1'
loop_
    _symmetry_equiv_pos_as_xyz
    x,y,z
loop_
    _atom_site_label
    _atom_site_type_symbol
    _atom_site_fract_x
    _atom_site_fract_y
    _atom_site_fract_z
    _atom_site_occupancy
    Ga0     Ga   0.14451   0.14474   0.78974   1.000
    Ga1     Ga   0.14441   0.64479   0.28976   1.000
    Ga2     Ga   0.14443   0.64480   0.78976   1.000
    Ga3     Ga   0.64440   0.14480   0.28976   1.000
    Ga4     Ga   0.64442   0.14480   0.78970   1.000
    Ga5     Ga   0.64460   0.64466   0.28973   1.000
    Ga6     Ga   0.64451   0.64472   0.78975   1.000
    Ga7     Ga   0.35528   0.35551   0.21022   1.000
    Ga8     Ga   0.35530   0.35551   0.71023   1.000
    Ga9     Ga   0.35548   0.85539   0.21020   1.000
    Ga10    Ga   0.35539   0.85544   0.71021   1.000
    Ga11    Ga   0.85548   0.35539   0.21021   1.000
    Ga12    Ga   0.85538   0.35546   0.71021   1.000
    Ga13    Ga   0.85527   0.85550   0.21022   1.000
    Ga14    Ga   0.85530   0.85551   0.71020   1.000
    Ga15    Ga   0.00000   0.25000   0.25002   1.000
    Ga16    Ga   0.00008   0.25036   0.75008   1.000
    Ga17    Ga   0.00018   0.75070   0.25014   1.000
    Ga18    Ga   0.00017   0.75067   0.75016   1.000
    Ga19    Ga   0.50018   0.25074   0.25014   1.000
    Ga20    Ga   0.50015   0.25066   0.75016   1.000
    Ga21    Ga   0.50002   0.75007   0.25003   1.000
    Ga22    Ga   0.50007   0.75032   0.75007   1.000
    Ga23    Ga   0.25033   0.00016   0.25000   1.000
    Ga24    Ga   0.24990   0.00007   0.74998   1.000
    Ga25    Ga   0.24940   0.49993   0.24982   1.000
    Ga26    Ga   0.24950   0.49997   0.74980   1.000
    Ga27    Ga   0.74939   0.99993   0.24982   1.000
    Ga28    Ga   0.74949   0.99998   0.74985   1.000
    Ga29    Ga   0.75033   0.50015   0.25008   1.000
    Ga30    Ga   0.74989   0.50006   0.74990   1.000
    H31     H    0.51571   0.16842   0.33575   1.000
    Ga32    Ga   0.14461   0.14466   0.28974   1.000
    H33     H    0.51571   0.16833   0.83575   1.000
    H34     H    0.51577   0.66797   0.33560   1.000
    H35     H    0.51572   0.66812   0.83569   1.000
    H36     H    0.00000   0.16795   0.33567   1.000
    H37     H    0.00000   0.16814   0.83569   1.000
    H38     H    0.00000   0.66839   0.33574   1.000
    H39     H    0.00000   0.66835   0.83575   1.000
    H40     H    0.07421   0.46645   0.23076   1.000
    H41     H    0.07426   0.46651   0.73075   1.000
    H42     H    0.07480   0.96648   0.23081   1.000
    H43     H    0.07451   0.96651   0.73079   1.000
    H44     H    0.57478   0.46650   0.23081   1.000
    H45     H    0.57450   0.46651   0.73079   1.000
    H46     H    0.57420   0.96646   0.23075   1.000
    H47     H    0.57425   0.96649   0.73070   1.000
    H48     H    0.31929   0.16804   0.33587   1.000
    H49     H    0.31916   0.16791   0.83580   1.000
    H50     H    0.31900   0.66769   0.33570   1.000
    H51     H    0.31904   0.66775   0.83573   1.000
    H52     H    0.81898   0.16770   0.33571   1.000
    H53     H    0.81903   0.16776   0.83572   1.000
    H54     H    0.81929   0.66804   0.33587   1.000
    H55     H    0.81916   0.66789   0.83580   1.000
    H56     H    0.15633   0.26417   0.23087   1.000
    H57     H    0.15638   0.26422   0.73087   1.000
    H58     H    0.15650   0.76428   0.23090   1.000
    H59     H    0.15646   0.76429   0.73092   1.000
    H60     H    0.65650   0.26430   0.23094   1.000
    H61     H    0.65645   0.26429   0.73092   1.000
    H62     H    0.65634   0.76417   0.23086   1.000
    H63     H    0.65637   0.76421   0.73087   1.000
    H64     H    0.98430   0.33196   0.16430   1.000
    H65     H    0.98425   0.33214   0.66432   1.000
    H66     H    0.98422   0.83234   0.16430   1.000
    H67     H    0.98423   0.83230   0.66436   1.000
    H68     H    0.48421   0.33236   0.16434   1.000
    H69     H    0.48422   0.33229   0.66436   1.000
    H70     H    0.48430   0.83198   0.16430   1.000
    H71     H    0.48424   0.83212   0.66432   1.000
    H72     H    0.42556   0.03377   0.26917   1.000
    H73     H    0.42528   0.03376   0.76915   1.000
    H74     H    0.42497   0.53371   0.26910   1.000
    H75     H    0.42503   0.53374   0.76911   1.000
    H76     H    0.92497   0.03370   0.26911   1.000
    H77     H    0.92502   0.03375   0.76910   1.000
    H78     H    0.92557   0.53375   0.26917   1.000
    H79     H    0.92527   0.53376   0.76915   1.000
    H80     H    0.18059   0.33203   0.16405   1.000
    H81     H    0.18063   0.33209   0.66407   1.000
    H82     H    0.18090   0.83238   0.16422   1.000
    H83     H    0.18077   0.83223   0.66415   1.000
    H84     H    0.68090   0.33238   0.16422   1.000
    H85     H    0.68075   0.33224   0.66415   1.000
    H86     H    0.68059   0.83202   0.16405   1.000
    H87     H    0.68063   0.83208   0.66407   1.000
    H88     H    0.34373   0.23602   0.26910   1.000
    H89     H    0.34367   0.23600   0.76909   1.000
    H90     H    0.34356   0.73589   0.26903   1.000
    H91     H    0.34360   0.73593   0.76904   1.000
    H92     H    0.84354   0.23589   0.26904   1.000
    H93     H    0.84359   0.23594   0.76904   1.000
    H94     H    0.84372   0.73600   0.26910   1.000
    H95     H    0.84368   0.73601   0.76909   1.000
    O96     O    0.51120   0.64583   0.78950   1.000
    O97     O    0.12032   0.01619   0.22744   1.000
    O98     O    0.12002   0.01622   0.72740   1.000
    O99     O    0.11963   0.51620   0.22734   1.000
    H100    H    0.22716   0.33606   0.70000   1.000
    C101    C    0.21087   0.03510   0.87666   1.000
    C102    C    0.21065   0.53497   0.37658   1.000
    C103    C    0.21071   0.53503   0.87660   1.000
    C104    C    0.71064   0.03500   0.37658   1.000
    C105    C    0.71070   0.03502   0.87660   1.000
    C106    C    0.71101   0.53510   0.37667   1.000
    C107    C    0.71086   0.53508   0.87666   1.000
    O108    O    0.48874   0.35481   0.21053   1.000
    O109    O    0.48875   0.35475   0.71054   1.000
    O110    O    0.48881   0.85439   0.21040   1.000
    O111    O    0.48876   0.85455   0.71050   1.000
    O112    O    0.98879   0.35435   0.21048   1.000
    C113    C    0.16501   0.34155   0.37674   1.000
    C114    C    0.16504   0.34166   0.87675   1.000
    C115    C    0.16513   0.84176   0.37682   1.000
    C116    C    0.16513   0.84178   0.87682   1.000
    C117    C    0.66513   0.34179   0.37682   1.000
    C118    C    0.66511   0.34176   0.87682   1.000
    C119    C    0.66502   0.84157   0.37670   1.000
    C120    C    0.66502   0.84163   0.87670   1.000
    C121    C    0.28901   0.46520   0.12333   1.000
    C122    C    0.28907   0.46522   0.62335   1.000
    C123    C    0.28938   0.96530   0.12342   1.000
    C124    C    0.28924   0.96528   0.62341   1.000
    C125    C    0.78937   0.46529   0.12342   1.000
    C126    C    0.78923   0.46530   0.62341   1.000
    C127    C    0.78900   0.96518   0.12333   1.000
    C128    C    0.78906   0.96523   0.62335   1.000
    C129    C    0.33506   0.15880   0.12332   1.000
    C130    C    0.33505   0.15879   0.62332   1.000
    C131    C    0.33495   0.65861   0.12324   1.000
    C132    C    0.33497   0.65867   0.62324   1.000
    C133    C    0.83494   0.15859   0.12323   1.000
    C134    C    0.83496   0.15869   0.62324   1.000
    C135    C    0.83505   0.65878   0.12331   1.000
    C136    C    0.83505   0.65880   0.62332   1.000
    C137    C    0.26214   0.09239   0.40000   1.000
    O138    O    0.01124   0.14562   0.28948   1.000
    O139    O    0.01121   0.14585   0.78950   1.000
    O140    O    0.01121   0.64611   0.28956   1.000
    O141    O    0.01121   0.64608   0.78957   1.000
    O142    O    0.51120   0.14614   0.28957   1.000
    O143    O    0.51120   0.14607   0.78956   1.000
    O144    O    0.51124   0.64565   0.28948   1.000
    O145    O    0.11973   0.51623   0.72735   1.000
    O146    O    0.61963   0.01622   0.22734   1.000
    O147    O    0.61971   0.01623   0.72735   1.000
    O148    O    0.62032   0.51619   0.22744   1.000
    O149    O    0.62001   0.51620   0.72740   1.000
    O150    O    0.16635   0.09787   0.36864   1.000
    O151    O    0.16629   0.09795   0.86867   1.000
    O152    O    0.16614   0.59789   0.36860   1.000
    O153    O    0.16620   0.59795   0.86865   1.000
    O154    O    0.66614   0.09792   0.36864   1.000
    O155    O    0.66618   0.09793   0.86865   1.000
    O156    O    0.66636   0.59789   0.36864   1.000
    O157    O    0.66628   0.59793   0.86867   1.000
    O158    O    0.24817   0.48859   0.33784   1.000
    O159    O    0.24825   0.48865   0.83788   1.000
    O160    O    0.24873   0.98879   0.33804   1.000
    O161    O    0.24850   0.98874   0.83798   1.000
    O162    O    0.74873   0.48881   0.33805   1.000
    O163    O    0.74848   0.48874   0.83798   1.000
    O164    O    0.74817   0.98859   0.33785   1.000
    O165    O    0.74825   0.98863   0.83787   1.000
    O166    O    0.27791   0.14401   0.28967   1.000
    O167    O    0.27774   0.14396   0.78962   1.000
    O168    O    0.27752   0.64385   0.28950   1.000
    O169    O    0.27757   0.64389   0.78950   1.000
    O170    O    0.77751   0.14386   0.28954   1.000
    O171    O    0.77756   0.14390   0.78955   1.000
    O172    O    0.77791   0.64400   0.28967   1.000
    O173    O    0.77773   0.64395   0.78962   1.000
    O174    O    0.10741   0.21116   0.22751   1.000
    O175    O    0.10740   0.21128   0.72753   1.000
    O176    O    0.10743   0.71141   0.22757   1.000
    O177    O    0.10741   0.71141   0.72757   1.000
    O178    O    0.60742   0.21143   0.22757   1.000
    O179    O    0.60740   0.21141   0.72757   1.000
    O180    O    0.60741   0.71118   0.22751   1.000
    O181    O    0.60739   0.71126   0.72752   1.000
    O182    O    0.20134   0.27050   0.36872   1.000
    O183    O    0.20127   0.27055   0.86872   1.000
    O184    O    0.20124   0.77058   0.36870   1.000
    O185    O    0.20126   0.77061   0.86877   1.000
    O186    O    0.70124   0.27061   0.36877   1.000
    O187    O    0.70124   0.27060   0.86878   1.000
    O188    O    0.70133   0.77051   0.36872   1.000
    O189    O    0.70127   0.77054   0.86872   1.000
    O190    O    0.08893   0.34931   0.33813   1.000
    O191    O    0.08898   0.34953   0.83815   1.000
    O192    O    0.08917   0.84979   0.33820   1.000
    O193    O    0.08913   0.84976   0.83823   1.000
    O194    O    0.58917   0.34982   0.33820   1.000
    O195    O    0.58910   0.34974   0.83823   1.000
    O196    O    0.58893   0.84935   0.33814   1.000
    O197    O    0.58897   0.84950   0.83810   1.000
    O198    O    0.98876   0.35457   0.71050   1.000
    O199    O    0.98874   0.85479   0.21053   1.000
    O200    O    0.98874   0.85476   0.71054   1.000
    O201    O    0.37949   0.48401   0.27200   1.000
    O202    O    0.37958   0.48402   0.77250   1.000
    O203    O    0.38019   0.98399   0.27260   1.000
    O204    O    0.37988   0.98400   0.77257   1.000
    O205    O    0.88018   0.48399   0.27260   1.000
    O206    O    0.87987   0.48401   0.77257   1.000
    O207    O    0.87948   0.98399   0.27250   1.000
    O208    O    0.87957   0.98402   0.77251   1.000
    O209    O    0.33364   0.40241   0.13137   1.000
    O210    O    0.33370   0.40242   0.63138   1.000
    O211    O    0.33388   0.90237   0.13137   1.000
    O212    O    0.33380   0.90241   0.63100   1.000
    O213    O    0.83386   0.40236   0.13137   1.000
    O214    O    0.83379   0.40243   0.63140   1.000
    O215    O    0.83364   0.90239   0.13137   1.000
    O216    O    0.83369   0.90243   0.63138   1.000
    O217    O    0.25171   0.01159   0.16209   1.000
    O218    O    0.25149   0.01154   0.66204   1.000
    O219    O    0.25113   0.51138   0.16189   1.000
    O220    O    0.25124   0.51143   0.66193   1.000
    O221    O    0.75113   0.01138   0.16189   1.000
    O222    O    0.75122   0.01144   0.66193   1.000
    O223    O    0.75171   0.51158   0.16209   1.000
    O224    O    0.75149   0.51154   0.66204   1.000
    O225    O    0.22194   0.35613   0.21026   1.000
    O226    O    0.22199   0.35617   0.71027   1.000
    O227    O    0.22235   0.85628   0.21000   1.000
    O228    O    0.22218   0.85622   0.71034   1.000
    O229    O    0.72235   0.35628   0.21040   1.000
    O230    O    0.72216   0.35623   0.71034   1.000
    O231    O    0.72194   0.85612   0.21026   1.000
    O232    O    0.72199   0.85616   0.71027   1.000
    O233    O    0.39256   0.28915   0.27252   1.000
    O234    O    0.39254   0.28912   0.77250   1.000
    O235    O    0.39255   0.78889   0.27240   1.000
    O236    O    0.39253   0.78897   0.77248   1.000
    O237    O    0.89254   0.28888   0.27240   1.000
    O238    O    0.89252   0.28899   0.77248   1.000
    O239    O    0.89256   0.78913   0.27252   1.000
    O240    O    0.89254   0.78912   0.77253   1.000
    O241    O    0.29863   0.22981   0.13128   1.000
    O242    O    0.29863   0.22980   0.63129   1.000
    O243    O    0.29871   0.72973   0.13123   1.000
    O244    O    0.29865   0.72974   0.63123   1.000
    O245    O    0.79870   0.22971   0.13123   1.000
    O246    O    0.79864   0.22977   0.63123   1.000
    O247    O    0.79862   0.72979   0.13128   1.000
    O248    O    0.79863   0.72981   0.63129   1.000
    O249    O    0.41115   0.15117   0.16197   1.000
    O250    O    0.41110   0.15112   0.66199   1.000
    O251    O    0.41096   0.65078   0.16188   1.000
    O252    O    0.41099   0.65091   0.66190   1.000
    O253    O    0.91093   0.15074   0.16188   1.000
    O254    O    0.91099   0.15094   0.66190   1.000
    O255    O    0.91114   0.65114   0.16197   1.000
    O256    O    0.91110   0.65113   0.66200   1.000
loop_
    _geom_bond_atom_site_label_1
    _geom_bond_atom_site_label_2
    _geom_bond_distance
    _geom_bond_site_symmetry_2
    _ccdc_geom_bond_type
    C133   O245      1.27335      .   S
    C133   O253      1.27513      .   S
    C131   O243      1.27336      .   S
    C131   O251      1.27501      .   S
    C135   O247      1.27354      .   S
    C135   O255      1.27491      .   S
    C129   O241      1.27353      .   S
    C129   O249      1.27478      .   S
    C121   O209      1.27325      .   S
    C121   O219      1.27510      .   S
    C127   O215      1.27325      .   S
    C127   O221      1.27522  1_565   S
    C123   O211      1.27330      .   S
    C123   O217      1.27518  1_565   S
    C125   O213      1.27331      .   S
    C125   O223      1.27498      .   S
    H80    O225      0.97586      .   S
    H86    O231      0.97585      .   S
    H84    O229      0.97583      .   S
    H82    O227      0.96887      .   S
    H66    O199      0.97679      .   S
    H64    O112      0.97585      .   S
    H70    O110      0.97408      .   S
    H68    O108      0.97588      .   S
    O227   Ga9       2.02298      .   S
    Ga11   O229      2.02555      .   S
    Ga7    O108      2.02698      .   S
    Ga7    O201      1.95920      .   S
    Ga13   O199      2.02696      .   S
    O231   Ga27      2.04640      .   S
    O225   Ga25      2.04616      .   S
    O146   H46       0.99173  1_545   S
    O146   Ga27      1.95811  1_545   S
    O99    H40       0.99169      .   S
    O99    Ga25      1.95808      .   S
    O148   H44       0.99153      .   S
    O148   Ga29      1.96046      .   S
    O97    H42       0.99159  1_545   S
    O97    Ga23      1.96039      .   S
    O174   H56       0.99136      .   S
    O174   Ga15      1.95888      .   S
    O180   H62       0.99138      .   S
    O180   Ga21      1.95893      .   S
    O176   H58       0.99160      .   S
    O176   Ga17      1.95949      .   S
    O178   H60       0.99125      .   S
    O178   Ga19      1.95948      .   S
    Ga27   O207      1.96123      .   S
    Ga23   O203      1.95894  1_545   S
    Ga23   O166      2.04685      .   S
    Ga15   O237      1.95860  1_455   S
    Ga21   O235      1.95835      .   S
    Ga29   O205      1.95875      .   S
    Ga29   O172      2.04680      .   S
    Ga19   O233      1.95835      .   S
    Ga17   O239      1.95853  1_455   S
    H90    O235      0.99180      .   S
    H92    O237      0.99181      .   S
    H74    O201      0.98586      .   S
    H94    O239      0.99133      .   S
    H88    O233      0.99134      .   S
    H76    O207      0.99155  1_545   S
    H78    O205      0.99155      .   S
    H72    O203      0.99163  1_545   S
    O144   Ga5       2.02636      .   S
    O144   H34       0.97435      .   S
    O138   Ga32      2.02640      .   S
    O138   H36       1.06918      .   S
    O168   H50       0.97631      .   S
    O170   H52       0.97577      .   S
    O140   Ga1       2.02508      .   S
    O140   H38       1.06869      .   S
    O142   Ga3       2.02510      .   S
    O142   H31       0.97569      .   S
    O172   H54       0.97580      .   S
    O166   H48       0.97582      .   S
    O158   C102      1.27514      .   S
    O164   C104      1.27518  1_565   S
    O162   C106      1.27501      .   S
    O190   C113      1.27513      .   S
    O196   C119      1.27472      .   S
    O192   C115      1.27542      .   S
    O194   C117      1.27546      .   S
    O152   C102      1.27349      .   S
    O154   C104      1.27329      .   S
    O156   C106      1.27323      .   S
    O184   C115      1.27313      .   S
    O188   C119      1.27320      .   S
    O182   C113      1.27326      .   S
    O186   C117      1.27310      .   S
    C134   O246      1.27347      .   S
    C134   O254      1.27497      .   S
    C132   O244      1.27346      .   S
    C132   O252      1.27498      .   S
    C136   O248      1.27353      .   S
    C136   O256      1.27488      .   S
    C130   O242      1.27353      .   S
    C130   O250      1.27481      .   S
    C128   O216      1.27324      .   S
    C128   O222      1.27528  1_565   S
    C122   O210      1.27324      .   S
    C122   O220      1.27507      .   S
    C126   O214      1.27331      .   S
    C126   O224      1.27508      .   S
    C124   O212      1.27144      .   S
    C124   O218      1.27521  1_565   S
    H87    O232      0.97572      .   S
    H81    O226      0.97572      .   S
    H85    O230      0.97579      .   S
    H83    O228      0.97579      .   S
    H71    O111      0.97570      .   S
    H65    O198      0.97577      .   S
    H69    O109      0.97571      .   S
    H67    O200      0.97578      .   S
    Ga14   O200      2.02659      .   S
    Ga10   O111      2.02608      .   S
    Ga12   O198      2.02614      .   S
    Ga8    H100      1.86401      .   S
    O232   Ga28      2.04639      .   S
    O226   Ga26      2.04613      .   S
    O230   Ga30      2.04635      .   S
    O228   Ga24      2.04674  1_565   S
    O109   Ga20      2.04504      .   S
    O145   H41       0.99166      .   S
    O145   Ga26      1.95824      .   S
    O147   H47       0.99115  1_545   S
    O147   Ga28      1.95821  1_545   S
    O149   H45       0.99162      .   S
    O149   Ga30      1.95919      .   S
    O98    H43       0.99173  1_545   S
    O98    Ga24      1.95923      .   S
    O181   H63       0.99132      .   S
    O181   Ga22      1.95915      .   S
    O175   H57       0.99138      .   S
    O175   Ga16      1.95911      .   S
    O177   H59       0.99127      .   S
    O177   Ga18      1.95941      .   S
    O179   H61       0.99127      .   S
    O179   Ga20      1.95943      .   S
    Ga26   O202      1.96095      .   S
    Ga28   O208      1.96113      .   S
    Ga30   O206      1.95999      .   S
    Ga24   O204      1.96015  1_545   S
    Ga22   O236      1.95877      .   S
    Ga16   O238      1.95892  1_455   S
    Ga18   O240      1.95870  1_455   S
    Ga20   O234      1.95822      .   S
    H93    O238      0.99131      .   S
    H91    O236      0.99126      .   S
    H95    O240      0.99131      .   S
    H89    O234      0.99155      .   S
    H77    O208      0.99157  1_545   S
    H75    O202      0.99130      .   S
    H79    O206      0.99154      .   S
    H73    O204      0.99162  1_545   S
    O139   Ga0       2.02584      .   S
    O139   H37       1.06892      .   S
    O169   H51       0.97678      .   S
    O96    Ga6       2.02583      .   S
    O96    H35       0.97592      .   S
    O171   Ga4       2.02532      .   S
    O171   H53       0.97575      .   S
    O143   H33       0.97589      .   S
    O141   Ga2       2.02530      .   S
    O141   H39       1.06871      .   S
    O167   H49       0.97567      .   S
    O173   H55       0.97568      .   S
    O165   C105      1.27537  1_565   S
    O159   C103      1.27508      .   S
    O161   C101      1.27534  1_565   S
    O163   C107      1.27516      .   S
    O197   C120      1.27526      .   S
    O191   C114      1.27536      .   S
    O195   C118      1.27538      .   S
    O193   C116      1.27540      .   S
    O153   C103      1.27333      .   S
    O155   C105      1.27332      .   S
    O151   C101      1.27324      .   S
    O157   C107      1.27326      .   S
    O189   C120      1.27313      .   S
    O183   C114      1.27312      .   S
    O185   C116      1.27308      .   S
    O187   C118      1.27310      .   S
    O138   Ga15      2.04651      .   S
    O139   Ga16      2.04763      .   S
    O140   Ga17      2.04873      .   S
    O141   Ga18      2.04861      .   S
    O142   Ga19      2.04890      .   S
    O143   Ga4       2.02568      .   S
    O143   Ga20      2.04844      .   S
    O144   Ga21      2.04684      .   S
    O96    Ga22      2.04754      .   S
    O97    Ga32      1.96312      .   S
    O98    Ga0       1.96347      .   S
    O99    Ga1       1.96431      .   S
    O145   Ga2       1.96409      .   S
    O146   Ga3       1.96429      .   S
    O147   Ga4       1.96358      .   S
    O148   Ga5       1.96307      .   S
    O149   Ga6       1.96353      .   S
    O150   Ga32      2.06549      .   S
    O150   C137      1.44857      .   S
    O151   Ga0       2.06604      .   S
    O152   Ga1       2.06525      .   S
    O153   Ga2       2.06585      .   S
    O154   Ga3       2.06598      .   S
    O155   Ga4       2.06722      .   S
    O156   Ga5       2.06557      .   S
    O157   Ga6       2.06591      .   S
    O158   Ga25      2.05017      .   S
    O159   Ga26      2.05151      .   S
    O160   Ga23      2.05236  1_565   S
    O160   C137      1.71880  1_565   S
    O161   Ga24      2.05036  1_565   S
    O162   Ga29      2.05064      .   S
    O163   Ga30      2.05218      .   S
    O164   Ga27      2.05040      .   S
    O165   Ga28      2.05025      .   S
    O166   Ga32      2.02685      .   S
    O167   Ga0       2.02626      .   S
    O167   Ga24      2.04718      .   S
    O168   Ga1       2.02568      .   S
    O168   Ga25      2.04742      .   S
    O169   Ga2       2.02609      .   S
    O169   Ga26      2.04748      .   S
    O170   Ga3       2.02549      .   S
    O170   Ga27      2.04750  1_545   S
    O171   Ga28      2.04745  1_545   S
    O172   Ga5       2.02686      .   S
    O173   Ga6       2.02626      .   S
    O173   Ga30      2.04726      .   S
    O174   Ga32      1.96510      .   S
    O175   Ga0       1.96517      .   S
    O176   Ga1       1.96544      .   S
    O177   Ga2       1.96542      .   S
    O178   Ga3       1.96548      .   S
    O179   Ga4       1.96431      .   S
    O180   Ga5       1.96510      .   S
    O181   Ga6       1.96543      .   S
    O182   Ga32      2.06706      .   S
    O183   Ga0       2.06695      .   S
    O184   Ga1       2.06631      .   S
    O185   Ga2       2.06722      .   S
    O186   Ga3       2.06714      .   S
    O187   Ga4       2.06787      .   S
    O188   Ga5       2.06728      .   S
    O189   Ga6       2.06678      .   S
    O190   Ga15      2.05122      .   S
    O191   Ga16      2.04979      .   S
    O192   Ga17      2.04959      .   S
    O193   Ga18      2.04958      .   S
    O194   Ga19      2.04962      .   S
    O195   Ga20      2.04956      .   S
    O196   Ga21      2.05099      .   S
    O197   Ga22      2.04939      .   S
    O108   Ga19      2.04460      .   S
    O109   Ga8       2.02676      .   S
    O110   Ga9       2.02617      .   S
    O110   Ga21      2.04813      .   S
    O111   Ga22      2.04609      .   S
    O112   Ga11      2.02561      .   S
    O112   Ga15      2.04728  1_655   S
    O198   Ga16      2.04604  1_655   S
    O199   Ga17      2.04474  1_655   S
    O200   Ga18      2.04494  1_655   S
    O201   Ga25      1.96102      .   S
    O202   Ga8       1.96334      .   S
    O203   Ga9       1.96446      .   S
    O204   Ga10      1.96412      .   S
    O205   Ga11      1.96442      .   S
    O206   Ga12      1.96410      .   S
    O207   Ga13      1.96329      .   S
    O208   Ga14      1.96369      .   S
    O209   Ga7       2.06553      .   S
    O210   Ga8       2.06572      .   S
    O211   Ga9       2.06598      .   S
    O212   Ga10      2.07373      .   S
    O213   Ga11      2.06608      .   S
    O214   Ga12      2.06550      .   S
    O215   Ga13      2.06549      .   S
    O216   Ga14      2.06517      .   S
    O217   Ga23      2.04887      .   S
    O218   Ga24      2.05063      .   S
    O219   Ga25      2.05095      .   S
    O220   Ga26      2.04960      .   S
    O221   Ga27      2.05090  1_545   S
    O222   Ga28      2.05078  1_545   S
    O223   Ga29      2.05060      .   S
    O224   Ga30      2.04889      .   S
    O225   Ga7       2.02701      .   S
    O226   Ga8       2.02673      .   S
    O227   Ga23      2.04747  1_565   S
    O228   Ga10      2.02618      .   S
    O229   Ga29      2.04685      .   S
    O230   Ga12      2.02617      .   S
    O231   Ga13      2.02705      .   S
    O232   Ga14      2.02691      .   S
    O233   Ga7       1.96506      .   S
    O234   Ga8       1.96468      .   S
    O235   Ga9       1.96432      .   S
    O236   Ga10      1.96536      .   S
    O237   Ga11      1.96425      .   S
    O238   Ga12      1.96531      .   S
    O239   Ga13      1.96513      .   S
    O240   Ga14      1.96568      .   S
    O241   Ga7       2.06537      .   S
    O242   Ga8       2.06538      .   S
    O243   Ga9       2.06536      .   S
    O244   Ga10      2.06579      .   S
    O245   Ga11      2.06561      .   S
    O246   Ga12      2.06570      .   S
    O247   Ga13      2.06545      .   S
    O248   Ga14      2.06498      .   S
    O249   Ga19      2.05383      .   S
    O250   Ga20      2.05378      .   S
    O251   Ga21      2.05218      .   S
    O252   Ga22      2.05315      .   S
    O253   Ga15      2.05191  1_655   S
    O254   Ga16      2.05342  1_655   S
    O255   Ga17      2.05384  1_655   S
    O256   Ga18      2.05376  1_655   S
