# CIF file generated by openbabel 2.4.90, see http://openbabel.sf.net
data_I
_chemical_name_common ''
_cell_length_a 15.191
_cell_length_b 15.284
_cell_length_c 22.58
_cell_angle_alpha 107.064
_cell_angle_beta 106.784
_cell_angle_gamma 97.779
_space_group_name_H-M_alt 'P 1'
_space_group_name_Hall 'P 1'
loop_
    _symmetry_equiv_pos_as_xyz
    x,y,z
loop_
    _atom_site_label
    _atom_site_type_symbol
    _atom_site_fract_x
    _atom_site_fract_y
    _atom_site_fract_z
    _atom_site_occupancy
    C0      C    0.21087   0.03510   0.87666   1.000
    C1      C    0.21065   0.53497   0.37658   1.000
    C2      C    0.21071   0.53503   0.87660   1.000
    C3      C    0.71064   0.03500   0.37658   1.000
    C4      C    0.71070   0.03502   0.87660   1.000
    C5      C    0.71101   0.53510   0.37667   1.000
    C6      C    0.71086   0.53508   0.87666   1.000
    C7      C    0.16501   0.34155   0.37674   1.000
    C8      C    0.16504   0.34166   0.87675   1.000
    C9      C    0.16513   0.84176   0.37682   1.000
    C10     C    0.16513   0.84178   0.87682   1.000
    C11     C    0.66513   0.34179   0.37682   1.000
    C12     C    0.66511   0.34176   0.87682   1.000
    C13     C    0.66502   0.84157   0.37670   1.000
    C14     C    0.66502   0.84163   0.87670   1.000
    C15     C    0.28901   0.46520   0.12333   1.000
    C16     C    0.28907   0.46522   0.62335   1.000
    C17     C    0.28938   0.96530   0.12342   1.000
    C18     C    0.28924   0.96528   0.62341   1.000
    C19     C    0.78937   0.46529   0.12342   1.000
    C20     C    0.78923   0.46530   0.62341   1.000
    C21     C    0.78900   0.96518   0.12333   1.000
    C22     C    0.78906   0.96523   0.62335   1.000
    C23     C    0.33506   0.15880   0.12332   1.000
    C24     C    0.33505   0.15879   0.62332   1.000
    C25     C    0.33495   0.65861   0.12324   1.000
    C26     C    0.33497   0.65867   0.62324   1.000
    C27     C    0.83494   0.15859   0.12323   1.000
    C28     C    0.83496   0.15869   0.62324   1.000
    C29     C    0.83505   0.65878   0.12331   1.000
    C30     C    0.83505   0.65880   0.62332   1.000
    C31     C    0.26214   0.09239   0.40000   1.000
