# CIF file generated by openbabel 2.4.90, see http://openbabel.sf.net
data_I
_chemical_name_common ''
_cell_length_a 15.191
_cell_length_b 15.284
_cell_length_c 22.58
_cell_angle_alpha 107.064
_cell_angle_beta 106.784
_cell_angle_gamma 97.779
_space_group_name_H-M_alt 'P 1'
_space_group_name_Hall 'P 1'
loop_
    _symmetry_equiv_pos_as_xyz
    x,y,z
loop_
    _atom_site_label
    _atom_site_type_symbol
    _atom_site_fract_x
    _atom_site_fract_y
    _atom_site_fract_z
    _atom_site_occupancy
    Zr0     Zr   0.14461   0.14466   0.28974   1.000
    Zr1     Zr   0.14451   0.14474   0.78974   1.000
    Zr2     Zr   0.14441   0.64479   0.28976   1.000
    Zr3     Zr   0.14443   0.64480   0.78976   1.000
    Zr4     Zr   0.64440   0.14480   0.28976   1.000
    Zr5     Zr   0.64442   0.14480   0.78970   1.000
    Zr6     Zr   0.64460   0.64466   0.28973   1.000
    Zr7     Zr   0.64451   0.64472   0.78975   1.000
    Zr8     Zr   0.35528   0.35551   0.21022   1.000
    Zr9     Zr   0.35530   0.35551   0.71023   1.000
    Zr10    Zr   0.35548   0.85539   0.21020   1.000
    Zr11    Zr   0.35539   0.85544   0.71021   1.000
    Zr12    Zr   0.85548   0.35539   0.21021   1.000
    Zr13    Zr   0.85538   0.35546   0.71021   1.000
    Zr14    Zr   0.85527   0.85550   0.21022   1.000
    Zr15    Zr   0.85530   0.85551   0.71020   1.000
    Zr16    Zr   0.00000   0.25000   0.25002   1.000
    Zr17    Zr   0.00008   0.25036   0.75008   1.000
    Zr18    Zr   0.00018   0.75070   0.25014   1.000
    Zr19    Zr   0.00017   0.75067   0.75016   1.000
    Zr20    Zr   0.50018   0.25074   0.25014   1.000
    Zr21    Zr   0.50015   0.25066   0.75016   1.000
    Zr22    Zr   0.50002   0.75007   0.25003   1.000
    Zr23    Zr   0.50007   0.75032   0.75007   1.000
    Zr24    Zr   0.25033   0.00016   0.25000   1.000
    Zr25    Zr   0.24990   0.00007   0.74998   1.000
    Zr26    Zr   0.24940   0.49993   0.24982   1.000
    Zr27    Zr   0.24950   0.49997   0.74980   1.000
    Zr28    Zr   0.74939   0.99993   0.24982   1.000
    Zr29    Zr   0.74949   0.99998   0.74985   1.000
    Zr30    Zr   0.75033   0.50015   0.25008   1.000
    Zr31    Zr   0.74989   0.50006   0.74990   1.000
    Zr32    Zr   0.22716   0.33606   0.70000   1.000
    O33     O    0.29123   0.34579   0.70511   1.000
    N34     N    0.24998   0.50012   0.49997   1.000
    N35     N    0.24438   0.95755   0.00006   1.000
    N36     N    0.24581   0.00411   0.48635   1.000
    N37     N    0.75324   0.02356   0.99996   1.000
    N38     N    0.74998   0.00014   0.49998   1.000
    N39     N    0.72600   0.44950   0.92676   1.000
    N40     N    0.25325   0.52358   0.99997   1.000
    N41     N    0.75017   0.50026   0.50006   1.000
    N42     N    0.77291   0.66430   0.00000   1.000
    N43     N    0.78041   0.53027   0.06000   1.000
    N44     N    0.72737   0.33616   0.00010   1.000
    N45     N    0.72713   0.83604   0.30000   1.000
    N46     N    0.76212   0.59236   0.20000   1.000
    N47     N    0.27293   0.16432   0.20000   1.000
    C48     C    0.79829   0.15583   0.81263   1.000
    O49     O    0.78091   0.11388   0.79117   1.000
    O50     O    0.75464   0.15009   0.80113   1.000
    C51     C    0.20131   0.34413   0.68717   1.000
    O52     O    0.21853   0.38610   0.70860   1.000
    O53     O    0.24498   0.34998   0.69871   1.000
    C54     C    0.59698   0.99136   0.72902   1.000
    O55     O    0.64079   0.99973   0.73381   1.000
    O56     O    0.61453   0.03594   0.74377   1.000
    C57     C    0.40231   0.50888   0.77080   1.000
    O58     O    0.35842   0.50044   0.76598   1.000
    O59     O    0.38487   0.46432   0.75608   1.000
    C60     C    0.20839   0.54054   0.86104   1.000
    O61     O    0.22863   0.51743   0.82744   1.000
    O62     O    0.18185   0.58096   0.84512   1.000
    O63     O    0.22212   0.53261   0.90760   1.000
    C64     C    0.70838   0.04053   0.86104   1.000
    O65     O    0.72211   0.03259   0.90759   1.000
    O66     O    0.72862   0.01742   0.82745   1.000
    O67     O    0.68184   0.08095   0.84511   1.000
    C68     C    0.65182   0.32070   0.86128   1.000
    O69     O    0.59822   0.31045   0.82774   1.000
    O70     O    0.66233   0.26420   0.84526   1.000
    O71     O    0.68282   0.36646   0.88443   1.000
    C72     C    0.86811   0.76257   0.77081   1.000
    O73     O    0.90723   0.76623   0.76608   1.000
    O74     O    0.87101   0.79244   0.75609   1.000
    C75     C    0.00561   0.65721   0.81266   1.000
    O76     O    0.04172   0.65133   0.80116   1.000
    O77     O    0.00565   0.67780   0.79126   1.000
    C78     C    0.15184   0.82072   0.86127   1.000
    O79     O    0.16234   0.76421   0.84527   1.000
    O80     O    0.09824   0.81047   0.82773   1.000
    O81     O    0.18434   0.87045   0.90777   1.000
    C82     C    0.29133   0.45969   0.63889   1.000
    O83     O    0.27852   0.47350   0.59235   1.000
    O84     O    0.31792   0.41933   0.65485   1.000
    O85     O    0.27085   0.48270   0.67238   1.000
    C86     C    0.29830   0.65582   0.81261   1.000
    O87     O    0.25465   0.65008   0.80112   1.000
    O88     O    0.28092   0.61388   0.79113   1.000
    C89     C    0.36811   0.26256   0.77079   1.000
    O90     O    0.37101   0.29244   0.75608   1.000
    O91     O    0.40723   0.26622   0.76606   1.000
    C92     C    0.48648   0.34352   0.68745   1.000
    O93     O    0.45425   0.34933   0.69892   1.000
    O94     O    0.49047   0.32311   0.70890   1.000
    C95     C    0.90229   0.00889   0.77080   1.000
    O96     O    0.85841   0.00044   0.76599   1.000
    O97     O    0.88486   0.96433   0.75608   1.000
    C98     C    0.70131   0.84412   0.68717   1.000
    O99     O    0.71852   0.88610   0.70861   1.000
    O100    O    0.74497   0.84998   0.69870   1.000
    C101    C    0.63192   0.23785   0.72924   1.000
    O102    O    0.62892   0.20798   0.74394   1.000
    O103    O    0.59285   0.23444   0.73405   1.000
    C104    C    0.09699   0.49137   0.72905   1.000
    O105    O    0.14080   0.49974   0.73381   1.000
    O106    O    0.11454   0.53594   0.74380   1.000
    C107    C    0.51345   0.15720   0.81265   1.000
    O108    O    0.54563   0.15131   0.80114   1.000
    O109    O    0.50956   0.17778   0.79126   1.000
    C110    C    0.84826   0.67991   0.63887   1.000
    O111    O    0.83761   0.73629   0.65481   1.000
    O112    O    0.90195   0.69041   0.67247   1.000
    O113    O    0.81441   0.61945   0.59236   1.000
    C114    C    0.98649   0.84353   0.68745   1.000
    O115    O    0.99047   0.82313   0.70890   1.000
    O116    O    0.95425   0.84933   0.69891   1.000
    C117    C    0.34826   0.17990   0.63887   1.000
    O118    O    0.33761   0.23628   0.65481   1.000
    O119    O    0.40194   0.19040   0.67247   1.000
    O120    O    0.31332   0.12041   0.58893   1.000
    C121    C    0.79133   0.95970   0.63889   1.000
    O122    O    0.77851   0.97351   0.59235   1.000
    O123    O    0.77084   0.98270   0.67239   1.000
    O124    O    0.81791   0.91933   0.65484   1.000
    C125    C    0.13194   0.73785   0.72924   1.000
    O126    O    0.12893   0.70798   0.74395   1.000
    O127    O    0.09286   0.73445   0.73405   1.000
    C128    C    0.48655   0.84318   0.18735   1.000
    O129    O    0.45435   0.84904   0.19882   1.000
    O130    O    0.49048   0.82270   0.20878   1.000
    C131    C    0.09756   0.99134   0.22912   1.000
    O132    O    0.14144   0.99976   0.23392   1.000
    O133    O    0.11501   0.03588   0.24386   1.000
    C134    C    0.84819   0.17968   0.13878   1.000
    O135    O    0.90183   0.19003   0.17236   1.000
    O136    O    0.81511   0.12512   0.09227   1.000
    O137    O    0.83764   0.23612   0.15475   1.000
    C138    C    0.65176   0.82047   0.36119   1.000
    O139    O    0.68566   0.88093   0.40768   1.000
    O140    O    0.66236   0.76403   0.34521   1.000
    O141    O    0.59812   0.81009   0.32764   1.000
    C142    C    0.86804   0.26239   0.27072   1.000
    O143    O    0.90716   0.26591   0.26596   1.000
    O144    O    0.87103   0.29226   0.25601   1.000
    C145    C    0.00562   0.15678   0.31257   1.000
    O146    O    0.04177   0.15096   0.30109   1.000
    O147    O    0.00562   0.17730   0.29116   1.000
    C148    C    0.36806   0.76239   0.27071   1.000
    O149    O    0.37104   0.79227   0.25601   1.000
    O150    O    0.40717   0.76594   0.26596   1.000
    C151    C    0.15176   0.32045   0.36120   1.000
    O152    O    0.09811   0.31005   0.32764   1.000
    O153    O    0.16237   0.26402   0.34521   1.000
    O154    O    0.18566   0.38091   0.40768   1.000
    C155    C    0.79860   0.65602   0.31277   1.000
    O156    O    0.78136   0.61405   0.29132   1.000
    O157    O    0.75493   0.65018   0.30123   1.000
    C158    C    0.79165   0.45974   0.13896   1.000
    O159    O    0.78634   0.48108   0.10741   1.000
    O160    O    0.81816   0.41931   0.15487   1.000
    O161    O    0.77558   0.51595   0.16474   1.000
    O162    O    0.77133   0.48280   0.17252   1.000
    C163    C    0.70870   0.54060   0.36112   1.000
    O164    O    0.72157   0.52683   0.40767   1.000
    O165    O    0.68209   0.58094   0.34515   1.000
    O166    O    0.72912   0.51754   0.32759   1.000
    C167    C    0.51351   0.65681   0.31254   1.000
    O168    O    0.54571   0.65098   0.30107   1.000
    O169    O    0.50957   0.67733   0.29115   1.000
    C170    C    0.90287   0.50887   0.27088   1.000
    O171    O    0.85906   0.50047   0.26611   1.000
    O172    O    0.88535   0.46428   0.25614   1.000
    C173    C    0.29166   0.95975   0.13896   1.000
    O174    O    0.27134   0.98281   0.17250   1.000
    O175    O    0.31817   0.91932   0.15487   1.000
    O176    O    0.27734   0.96291   0.09242   1.000
    C177    C    0.98655   0.34315   0.18739   1.000
    O178    O    0.95434   0.34901   0.19887   1.000
    O179    O    0.99047   0.32267   0.20882   1.000
    C180    C    0.13187   0.23766   0.22919   1.000
    O181    O    0.09279   0.23412   0.23398   1.000
    O182    O    0.12894   0.20779   0.24391   1.000
    C183    C    0.40288   0.00888   0.27088   1.000
    O184    O    0.35907   0.00048   0.26609   1.000
    O185    O    0.38536   0.96429   0.25614   1.000
    C186    C    0.63187   0.73767   0.22918   1.000
    O187    O    0.62894   0.70780   0.24390   1.000
    O188    O    0.59279   0.73415   0.23398   1.000
    C189    C    0.34821   0.67971   0.13878   1.000
    O190    O    0.31512   0.62514   0.09228   1.000
    O191    O    0.33765   0.73613   0.15475   1.000
    O192    O    0.40185   0.69006   0.17237   1.000
    C193    C    0.29860   0.15602   0.31277   1.000
    O194    O    0.28136   0.11405   0.29130   1.000
    O195    O    0.25493   0.15018   0.30124   1.000
    C196    C    0.59755   0.49134   0.22912   1.000
    O197    O    0.64144   0.49976   0.23394   1.000
    O198    O    0.61501   0.53589   0.24385   1.000
    C199    C    0.20163   0.84433   0.18711   1.000
    O200    O    0.21898   0.88627   0.20855   1.000
    O201    O    0.24527   0.85008   0.19860   1.000
    C202    C    0.70162   0.34433   0.18731   1.000
    O203    O    0.71898   0.38627   0.20877   1.000
    O204    O    0.74527   0.35008   0.19881   1.000
    C205    C    0.22574   0.05968   0.36889   1.000
    O206    O    0.23347   0.04680   0.40312   1.000
    O207    O    0.22149   0.04749   0.39920   1.000
    O208    O    0.19061   0.09048   0.34904   1.000
    O209    O    0.23179   0.03385   0.39537   1.000
    O210    O    0.23764   0.02708   0.33146   1.000
    C211    C    0.70854   0.54058   0.86110   1.000
    O212    O    0.68197   0.58096   0.84516   1.000
    O213    O    0.72886   0.51749   0.82752   1.000
    O214    O    0.71542   0.51413   0.88934   1.000
    C215    C    0.84819   0.17980   0.63879   1.000
    O216    O    0.83760   0.23621   0.65475   1.000
    O217    O    0.90186   0.19022   0.67239   1.000
    O218    O    0.81430   0.11934   0.59228   1.000
    C219    C    0.29845   0.15593   0.81271   1.000
    O220    O    0.25479   0.15014   0.80119   1.000
    O221    O    0.28113   0.11397   0.79125   1.000
    C222    C    0.20855   0.04060   0.86110   1.000
    O223    O    0.18198   0.08097   0.84515   1.000
    O224    O    0.22888   0.01750   0.82754   1.000
    O225    O    0.22003   0.01615   0.90766   1.000
    C226    C    0.13189   0.23775   0.72920   1.000
    O227    O    0.12892   0.20788   0.74392   1.000
    O228    O    0.09281   0.23429   0.73400   1.000
    C229    C    0.15176   0.32058   0.86121   1.000
    O230    O    0.18648   0.38686   0.90770   1.000
    O231    O    0.16233   0.26411   0.84522   1.000
    O232    O    0.09815   0.31026   0.82766   1.000
    C233    C    0.98650   0.34336   0.68741   1.000
    O234    O    0.99046   0.32291   0.70885   1.000
    O235    O    0.95428   0.34919   0.69888   1.000
    C236    C    0.34820   0.67977   0.63879   1.000
    O237    O    0.31431   0.61932   0.59228   1.000
    O238    O    0.33761   0.73618   0.65475   1.000
    O239    O    0.40187   0.69019   0.67239   1.000
    C240    C    0.09727   0.99136   0.72909   1.000
    O241    O    0.14111   0.99975   0.73389   1.000
    O242    O    0.11477   0.03592   0.74383   1.000
    C243    C    0.29151   0.95974   0.63882   1.000
    O244    O    0.27760   0.97454   0.58892   1.000
    O245    O    0.31805   0.91933   0.65471   1.000
    O246    O    0.27110   0.98277   0.67241   1.000
    C247    C    0.63188   0.73773   0.72919   1.000
    O248    O    0.59281   0.73426   0.73399   1.000
    O249    O    0.62892   0.70786   0.74391   1.000
    C250    C    0.48650   0.84333   0.68741   1.000
    O251    O    0.49046   0.82288   0.70885   1.000
    O252    O    0.45429   0.84916   0.69888   1.000
    C253    C    0.40258   0.00888   0.77086   1.000
    O254    O    0.35874   0.00046   0.76607   1.000
    O255    O    0.38511   0.96430   0.75612   1.000
    C256    C    0.65176   0.82055   0.86117   1.000
    O257    O    0.66233   0.76409   0.84520   1.000
    O258    O    0.59814   0.81023   0.82763   1.000
    O259    O    0.68648   0.88684   0.90767   1.000
    C260    C    0.79150   0.45975   0.63895   1.000
    O261    O    0.81805   0.41935   0.65488   1.000
    O262    O    0.77869   0.47359   0.59242   1.000
    O263    O    0.77110   0.48278   0.67246   1.000
    C264    C    0.86806   0.26247   0.77076   1.000
    O265    O    0.87100   0.29235   0.75605   1.000
    O266    O    0.90718   0.26607   0.76602   1.000
    C267    C    0.79845   0.65592   0.81271   1.000
    O268    O    0.75478   0.65013   0.80120   1.000
    O269    O    0.78113   0.61396   0.79123   1.000
    C270    C    0.59726   0.49136   0.72909   1.000
    O271    O    0.64110   0.49974   0.73387   1.000
    O272    O    0.61476   0.53591   0.74383   1.000
    C273    C    0.70146   0.34423   0.68724   1.000
    O274    O    0.71874   0.38619   0.70868   1.000
    O275    O    0.74511   0.35004   0.69876   1.000
    C276    C    0.36807   0.76245   0.77076   1.000
    O277    O    0.37101   0.79233   0.75605   1.000
    O278    O    0.40718   0.76605   0.76602   1.000
    C279    C    0.90257   0.50889   0.77086   1.000
    O280    O    0.85873   0.50046   0.76605   1.000
    O281    O    0.88510   0.46431   0.75612   1.000
    C282    C    0.20147   0.84422   0.68724   1.000
    O283    O    0.24513   0.85003   0.69876   1.000
    O284    O    0.21876   0.88618   0.70870   1.000
    C285    C    0.00560   0.15700   0.81259   1.000
    O286    O    0.04173   0.15115   0.80111   1.000
    O287    O    0.00563   0.17755   0.79119   1.000
    C288    C    0.51346   0.65697   0.81259   1.000
    O289    O    0.54566   0.65112   0.80111   1.000
    O290    O    0.50955   0.67752   0.79119   1.000
    C291    C    0.59691   0.99134   0.22904   1.000
    O292    O    0.64071   0.99971   0.23381   1.000
    O293    O    0.61447   0.03593   0.24380   1.000
    C294    C    0.70832   0.04050   0.36102   1.000
    O295    O    0.72125   0.02672   0.40758   1.000
    O296    O    0.72855   0.01738   0.32743   1.000
    O297    O    0.68179   0.08093   0.34511   1.000
    C298    C    0.90223   0.00885   0.27080   1.000
    O299    O    0.85833   0.00040   0.26598   1.000
    O300    O    0.88480   0.96430   0.25608   1.000
    C301    C    0.20832   0.54048   0.36101   1.000
    O302    O    0.22855   0.51737   0.32742   1.000
    O303    O    0.22126   0.52670   0.40757   1.000
    O304    O    0.18180   0.58091   0.34509   1.000
    C305    C    0.65185   0.32074   0.36126   1.000
    O306    O    0.68579   0.38114   0.40776   1.000
    O307    O    0.66233   0.26422   0.34526   1.000
    O308    O    0.59826   0.31051   0.32772   1.000
    C309    C    0.84827   0.67990   0.13885   1.000
    O310    O    0.82198   0.62695   0.10734   1.000
    O311    O    0.83761   0.73627   0.15480   1.000
    O312    O    0.90197   0.69041   0.17245   1.000
    C313    C    0.79825   0.15578   0.31262   1.000
    O314    O    0.75460   0.15006   0.30114   1.000
    O315    O    0.78085   0.11384   0.29115   1.000
    C316    C    0.00560   0.65725   0.31265   1.000
    O317    O    0.04171   0.65135   0.30115   1.000
    O318    O    0.00565   0.67783   0.29125   1.000
    C319    C    0.20126   0.34408   0.18715   1.000
    O320    O    0.21847   0.38605   0.20860   1.000
    O321    O    0.24494   0.34995   0.19870   1.000
    C322    C    0.09692   0.49133   0.22905   1.000
    O323    O    0.14072   0.49969   0.23381   1.000
    O324    O    0.11447   0.53591   0.24380   1.000
    C325    C    0.13197   0.73785   0.22923   1.000
    O326    O    0.09289   0.73445   0.23404   1.000
    O327    O    0.12895   0.70798   0.24395   1.000
    C328    C    0.63196   0.23787   0.22925   1.000
    O329    O    0.59288   0.23448   0.23405   1.000
    O330    O    0.62894   0.20799   0.24396   1.000
    C331    C    0.51346   0.15728   0.31266   1.000
    O332    O    0.54563   0.15138   0.30116   1.000
    O333    O    0.50957   0.17786   0.29126   1.000
    C334    C    0.29126   0.45966   0.13886   1.000
    O335    O    0.27076   0.48266   0.17236   1.000
    O336    O    0.31786   0.41931   0.15483   1.000
    O337    O    0.27928   0.47935   0.09233   1.000
    C338    C    0.15185   0.82071   0.36124   1.000
    O339    O    0.09826   0.81048   0.32770   1.000
    O340    O    0.16234   0.76420   0.34523   1.000
    O341    O    0.18470   0.88208   0.40433   1.000
    C342    C    0.34828   0.17993   0.13886   1.000
    O343    O    0.31298   0.10879   0.09236   1.000
    O344    O    0.40197   0.19044   0.17246   1.000
    O345    O    0.33762   0.23630   0.15480   1.000
    C346    C    0.70126   0.84407   0.18715   1.000
    O347    O    0.74494   0.84994   0.19870   1.000
    O348    O    0.71846   0.88605   0.20860   1.000
    C349    C    0.86814   0.76256   0.27081   1.000
    O350    O    0.90725   0.76624   0.26607   1.000
    O351    O    0.87103   0.79244   0.25609   1.000
    C352    C    0.48648   0.34358   0.18743   1.000
    O353    O    0.49047   0.32318   0.20888   1.000
    O354    O    0.45424   0.34937   0.19890   1.000
    C355    C    0.79126   0.95965   0.13886   1.000
    O356    O    0.77928   0.97933   0.09233   1.000
    O357    O    0.77076   0.98265   0.17236   1.000
    O358    O    0.81786   0.91930   0.15483   1.000
    C359    C    0.98648   0.84356   0.18741   1.000
    O360    O    0.95424   0.84935   0.19889   1.000
    O361    O    0.99047   0.82315   0.20887   1.000
    C362    C    0.40223   0.50886   0.27055   1.000
    O363    O    0.38481   0.46431   0.25583   1.000
    O364    O    0.35834   0.50041   0.26573   1.000
    C365    C    0.36815   0.26258   0.27081   1.000
    O366    O    0.37103   0.29246   0.25609   1.000
    O367    O    0.40726   0.26626   0.26607   1.000
    C368    C    0.29826   0.65577   0.31260   1.000
    O369    O    0.25461   0.65004   0.30111   1.000
    O370    O    0.28086   0.61383   0.29113   1.000
loop_
    _geom_bond_atom_site_label_1
    _geom_bond_atom_site_label_2
    _geom_bond_distance
    _geom_bond_site_symmetry_2
    _ccdc_geom_bond_type
    Zr9    O33       0.93201      .   S
    Zr32   O33       0.93201      .   S
    C48    O49       0.64309      .   S
    Zr29   O49       1.64125  1_565   S
    C48    O50       0.62151      .   S
    Zr5    O50       1.60563      .   S
    C51    O52       0.64294      .   S
    Zr27   O52       1.64046      .   S
    C51    O53       0.62158      .   S
    Zr9    O53       1.60638      .   S
    C54    O55       0.63105      .   S
    Zr29   O55       1.58424      .   S
    C54    O56       0.64229  1_565   S
    Zr5    O56       1.60022      .   S
    C57    O58       0.63199      .   S
    Zr27   O58       1.58663      .   S
    C57    O59       0.64178      .   S
    Zr9    O59       1.59948      .   S
    C60    O61       0.89550      .   S
    Zr27   O61       1.82061      .   S
    C60    O62       0.88729      .   S
    Zr3    O62       1.81483      .   S
    C60    O63       1.05742      .   S
    N40    O63       2.05198      .   S
    C64    O65       1.05740      .   S
    N37    O65       2.05188      .   S
    C64    O66       0.89528      .   S
    Zr29   O66       1.81969  1_565   S
    C64    O67       0.88749      .   S
    Zr5    O67       1.81568      .   S
    C68    O69       0.89483      .   S
    Zr21   O69       1.81875      .   S
    C68    O70       0.88849      .   S
    Zr5    O70       1.81746      .   S
    C68    O71       0.73369      .   S
    N39    O71       1.28658      .   S
    C72    O73       0.63162      .   S
    Zr19   O73       1.58514  1_455   S
    C72    O74       0.64270      .   S
    Zr15   O74       1.60166      .   S
    C75    O76       0.67696      .   S
    Zr3    O76       1.66441      .   S
    C75    O77       0.64940      .   S
    Zr19   O77       1.64201      .   S
    C78    O79       0.88847      .   S
    Zr3    O79       1.81717      .   S
    C78    O80       0.89481      .   S
    Zr19   O80       1.81874      .   S
    C78    O81       1.02693      .   S
    N35    O81       1.97288  1_554   S
    C82    O83       1.09995      .   S
    N34    O83       2.17429      .   S
    C82    O84       0.88734      .   S
    Zr9    O84       1.81482      .   S
    C82    O85       0.89538      .   S
    Zr27   O85       1.81960      .   S
    C86    O87       0.62149      .   S
    Zr3    O87       1.60589      .   S
    C86    O88       0.64322      .   S
    Zr27   O88       1.64134      .   S
    C89    O90       0.64259      .   S
    Zr9    O90       1.60104      .   S
    C89    O91       0.63156      .   S
    Zr21   O91       1.58484      .   S
    C92    O93       0.62139      .   S
    Zr9    O93       1.60617      .   S
    C92    O94       0.64217      .   S
    Zr21   O94       1.63905      .   S
    C95    O96       0.63205      .   S
    Zr29   O96       1.58676  1_565   S
    C95    O97       0.64184  1_545   S
    Zr15   O97       1.59969      .   S
    C98    O99       0.64308      .   S
    Zr29   O99       1.64074      .   S
    C98    O100      0.62157      .   S
    Zr15   O100      1.60645      .   S
    C101   O102      0.64239      .   S
    Zr5    O102      1.60066      .   S
    C101   O103      0.63168      .   S
    Zr21   O103      1.58556      .   S
    C104   O105      0.63120      .   S
    Zr27   O105      1.58441      .   S
    C104   O106      0.64225      .   S
    Zr3    O106      1.60036      .   S
    C107   O108      0.62142      .   S
    Zr5    O108      1.60569      .   S
    C107   O109      0.64314      .   S
    Zr21   O109      1.64176      .   S
    C110   O111      0.88738      .   S
    Zr15   O111      1.81462      .   S
    C110   O112      0.89576      .   S
    Zr19   O112      1.82203  1_455   S
    C110   O113      1.10046      .   S
    N41    O113      2.17511      .   S
    C114   O115      0.64215      .   S
    Zr19   O115      1.63897  1_455   S
    C114   O116      0.62134      .   S
    Zr15   O116      1.60603      .   S
    C117   O118      0.88744      .   S
    Zr9    O118      1.81488      .   S
    C117   O119      0.89573      .   S
    Zr21   O119      1.82199      .   S
    C117   O120      1.14095      .   S
    N36    O120      2.30111      .   S
    C121   O122      1.09993      .   S
    N38    O122      2.17424  1_545   S
    C121   O123      0.89566      .   S
    Zr29   O123      1.82046      .   S
    C121   O124      0.88731      .   S
    Zr15   O124      1.81452      .   S
    C125   O126      0.64265      .   S
    Zr3    O126      1.60148      .   S
    C125   O127      0.63167      .   S
    Zr19   O127      1.58554      .   S
    C128   O129      0.62124      .   S
    Zr10   O129      1.60584      .   S
    C128   O130      0.64264      .   S
    Zr22   O130      1.64117      .   S
    C131   O132      0.63212      .   S
    Zr24   O132      1.58651  1_545   S
    C131   O133      0.64168  1_565   S
    Zr0    O133      1.59924      .   S
    C134   O135      0.89551      .   S
    Zr16   O135      1.82081  1_455   S
    C134   O136      1.05762      .   S
    N37    O136      2.05234  1_556   S
    C134   O137      0.88767      .   S
    Zr12   O137      1.81530      .   S
    C138   O139      1.10039      .   S
    N38    O139      2.17515  1_545   S
    C138   O140      0.88818      .   S
    Zr6    O140      1.81677      .   S
    C138   O141      0.89501      .   S
    Zr22   O141      1.81972      .   S
    C142   O143      0.63171      .   S
    Zr16   O143      1.58517  1_455   S
    C142   O144      0.64256      .   S
    Zr12   O144      1.60080      .   S
    C145   O146      0.67726      .   S
    Zr0    O146      1.66524      .   S
    C145   O147      0.64886      .   S
    Zr16   O147      1.64035      .   S
    C148   O149      0.64257      .   S
    Zr10   O149      1.60084      .   S
    C148   O150      0.63166      .   S
    Zr22   O150      1.58499      .   S
    C151   O152      0.89514      .   S
    Zr16   O152      1.81999      .   S
    C151   O153      0.88812      .   S
    Zr0    O153      1.81660      .   S
    C151   O154      1.10029      .   S
    N34    O154      2.17506      .   S
    C155   O156      0.64311      .   S
    Zr30   O156      1.64097      .   S
    C155   O157      0.62165      .   S
    Zr6    O157      1.60651      .   S
    C158   O159      0.85487      .   S
    N43    O159      1.46769      .   S
    C158   O160      0.88734      .   S
    Zr12   O160      1.81500      .   S
    C158   O161      0.99090      .   S
    N46    O161      1.28554      .   S
    C158   O162      0.89527      .   S
    Zr30   O162      1.81990      .   S
    C163   O164      1.09992      .   S
    N41    O164      2.17414      .   S
    C163   O165      0.88727      .   S
    Zr6    O165      1.81465      .   S
    C163   O166      0.89561      .   S
    Zr30   O166      1.82038      .   S
    C167   O168      0.62111      .   S
    Zr6    O168      1.60576      .   S
    C167   O169      0.64237      .   S
    Zr22   O169      1.64022      .   S
    C170   O171      0.63113      .   S
    Zr30   O171      1.58456      .   S
    C170   O172      0.64241      .   S
    Zr12   O172      1.60072      .   S
    C173   O174      0.89495      .   S
    Zr24   O174      1.81865  1_545   S
    C173   O175      0.88734      .   S
    Zr10   O175      1.81494      .   S
    C173   O176      1.02685      .   S
    N35    O176      1.97292      .   S
    C177   O178      0.62129      .   S
    Zr12   O178      1.60550      .   S
    C177   O179      0.64272      .   S
    Zr16   O179      1.64073  1_455   S
    C180   O181      0.63158      .   S
    Zr16   O181      1.58518      .   S
    C180   O182      0.64266      .   S
    Zr0    O182      1.60135      .   S
    C183   O184      0.63103      .   S
    Zr24   O184      1.58453      .   S
    C183   O185      0.64246  1_545   S
    Zr10   O185      1.60079      .   S
    C186   O187      0.64268      .   S
    Zr6    O187      1.60136      .   S
    C186   O188      0.63160      .   S
    Zr22   O188      1.58522      .   S
    C189   O190      1.05761      .   S
    N40    O190      2.05229  1_556   S
    C189   O191      0.88759      .   S
    Zr10   O191      1.81508      .   S
    C189   O192      0.89550      .   S
    Zr22   O192      1.82093      .   S
    C193   O194      0.64325      .   S
    Zr24   O194      1.64116      .   S
    C193   O195      0.62164      .   S
    Zr0    O195      1.60649      .   S
    C196   O197      0.63209      .   S
    Zr30   O197      1.58650      .   S
    C196   O198      0.64163      .   S
    Zr6    O198      1.59915      .   S
    C199   O200      0.64289      .   S
    Zr24   O200      1.64154  1_545   S
    C199   O201      0.62140      .   S
    Zr10   O201      1.60491      .   S
    C202   O203      0.64302      .   S
    Zr30   O203      1.64088      .   S
    C202   O204      0.62141      .   S
    Zr12   O204      1.60561      .   S
    C205   O206      0.83240      .   S
    N36    O206      2.13129      .   S
    C205   O207      0.77732      .   S
    N36    O207      2.20474      .   S
    C205   O208      0.87227      .   S
    Zr0    O208      1.79842      .   S
    C205   O209      0.79901      .   S
    N36    O209      2.18944      .   S
    C205   O210      0.92787      .   S
    Zr24   O210      1.83620      .   S
    C211   O212      0.88725      .   S
    Zr7    O212      1.81479      .   S
    C211   O213      0.89583      .   S
    Zr31   O213      1.82135      .   S
    C211   O214      0.83974      .   S
    N39    O214      1.47292      .   S
    C215   O216      0.88755      .   S
    Zr13   O216      1.81518      .   S
    C215   O217      0.89575      .   S
    Zr17   O217      1.82186  1_455   S
    C215   O218      1.10050      .   S
    N38    O218      2.17519      .   S
    C219   O220      0.62157      .   S
    Zr1    O220      1.60615      .   S
    C219   O221      0.64310      .   S
    Zr25   O221      1.64114      .   S
    C222   O223      0.88731      .   S
    Zr1    O223      1.81490      .   S
    C222   O224      0.89547      .   S
    Zr25   O224      1.82001      .   S
    C222   O225      1.19067      .   S
    N35    O225      2.45610  1_564   S
    C226   O227      0.64268      .   S
    Zr1    O227      1.60140      .   S
    C226   O228      0.63161      .   S
    Zr17   O228      1.58532      .   S
    C229   O230      1.14802      .   S
    N40    O230      2.32102      .   S
    C229   O231      0.88828      .   S
    Zr1    O231      1.81677      .   S
    C229   O232      0.89489      .   S
    Zr17   O232      1.81895      .   S
    C233   O234      0.64240      .   S
    Zr17   O234      1.63978  1_455   S
    C233   O235      0.62132      .   S
    Zr13   O235      1.60580      .   S
    C236   O237      1.10051      .   S
    N34    O237      2.17524      .   S
    C236   O238      0.88758      .   S
    Zr11   O238      1.81526      .   S
    C236   O239      0.89568      .   S
    Zr23   O239      1.82163      .   S
    C240   O241      0.63159      .   S
    Zr25   O241      1.58533  1_545   S
    C240   O242      0.64194  1_565   S
    Zr1    O242      1.59970      .   S
    C243   O244      1.17902      .   S
    N36    O244      2.41436  1_545   S
    C243   O245      0.88697      .   S
    Zr11   O245      1.81753      .   S
    C243   O246      0.89673      .   S
    Zr25   O246      1.82161  1_545   S
    C247   O248      0.63160      .   S
    Zr23   O248      1.58533      .   S
    C247   O249      0.64271      .   S
    Zr7    O249      1.60156      .   S
    C250   O251      0.64241      .   S
    Zr23   O251      1.63982      .   S
    C250   O252      0.62125      .   S
    Zr11   O252      1.60569      .   S
    C253   O254      0.63158      .   S
    Zr25   O254      1.58574      .   S
    C253   O255      0.64218  1_545   S
    Zr11   O255      1.60029      .   S
    C256   O257      0.88816      .   S
    Zr7    O257      1.81649      .   S
    C256   O258      0.89487      .   S
    Zr23   O258      1.81873      .   S
    C256   O259      1.14802      .   S
    N37    O259      2.32134  1_545   S
    C260   O261      0.88729      .   S
    Zr13   O261      1.81467      .   S
    C260   O262      1.10005      .   S
    N41    O262      2.17430      .   S
    C260   O263      0.89509      .   S
    Zr31   O263      1.81889      .   S
    C264   O265      0.64257      .   S
    Zr13   O265      1.60134      .   S
    C264   O266      0.63170      .   S
    Zr17   O266      1.58534  1_455   S
    C267   O268      0.62156      .   S
    Zr7    O268      1.60614      .   S
    C267   O269      0.64324      .   S
    Zr31   O269      1.64134      .   S
    C270   O271      0.63169      .   S
    Zr31   O271      1.58543      .   S
    C270   O272      0.64191      .   S
    Zr7    O272      1.59969      .   S
    C273   O274      0.64288      .   S
    Zr31   O274      1.64049      .   S
    C273   O275      0.62149      .   S
    Zr13   O275      1.60600      .   S
    C276   O277      0.64257      .   S
    Zr11   O277      1.60136      .   S
    C276   O278      0.63164      .   S
    Zr23   O278      1.58521      .   S
    C279   O280      0.63150      .   S
    Zr31   O280      1.58557      .   S
    C279   O281      0.64214      .   S
    Zr13   O281      1.60024      .   S
    C282   O283      0.62149      .   S
    Zr11   O283      1.60601      .   S
    C282   O284      0.64309      .   S
    Zr25   O284      1.64091  1_545   S
    C285   O286      0.67704      .   S
    Zr1    O286      1.66473      .   S
    C285   O287      0.64915      .   S
    Zr17   O287      1.64124      .   S
    C288   O289      0.62128      .   S
    Zr7    O289      1.60558      .   S
    C288   O290      0.64290      .   S
    Zr23   O290      1.64106      .   S
    C291   O292      0.63097      .   S
    Zr28   O292      1.58406      .   S
    C291   O293      0.64244  1_565   S
    Zr4    O293      1.60067      .   S
    C294   O295      1.09998      .   S
    N38    O295      2.17448      .   S
    C294   O296      0.89523      .   S
    Zr28   O296      1.81971  1_565   S
    C294   O297      0.88732      .   S
    Zr4    O297      1.81490      .   S
    C298   O299      0.63220      .   S
    Zr28   O299      1.58699  1_565   S
    C298   O300      0.64168  1_545   S
    Zr14   O300      1.59932      .   S
    C301   O302      0.89510      .   S
    Zr26   O302      1.81949      .   S
    C301   O303      1.10019      .   S
    N34    O303      2.17447      .   S
    C301   O304      0.88732      .   S
    Zr2    O304      1.81463      .   S
    C305   O306      1.10003      .   S
    N41    O306      2.17452      .   S
    C305   O307      0.88848      .   S
    Zr4    O307      1.81714      .   S
    C305   O308      0.89486      .   S
    Zr20   O308      1.81881      .   S
    C309   O310      0.85517      .   S
    N43    O310      1.46813      .   S
    C309   O311      0.88745      .   S
    Zr14   O311      1.81492      .   S
    C309   O312      0.89575      .   S
    Zr18   O312      1.82204  1_455   S
    C313   O314      0.62144      .   S
    Zr4    O314      1.60563      .   S
    C313   O315      0.64309      .   S
    Zr28   O315      1.64128  1_565   S
    C316   O317      0.67688      .   S
    Zr2    O317      1.66421      .   S
    C316   O318      0.64943      .   S
    Zr18   O318      1.64210      .   S
    C319   O320      0.64306      .   S
    Zr26   O320      1.64060      .   S
    C319   O321      0.62162      .   S
    Zr8    O321      1.60655      .   S
    C322   O323      0.63098      .   S
    Zr26   O323      1.58407      .   S
    C322   O324      0.64240      .   S
    Zr2    O324      1.60064      .   S
    C325   O326      0.63179      .   S
    Zr18   O326      1.58569      .   S
    C325   O327      0.64277      .   S
    Zr2    O327      1.60162      .   S
    C328   O329      0.63168      .   S
    Zr20   O329      1.58558      .   S
    C328   O330      0.64261      .   S
    Zr4    O330      1.60147      .   S
    C331   O332      0.62118      .   S
    Zr4    O332      1.60514      .   S
    C331   O333      0.64321      .   S
    Zr20   O333      1.64207      .   S
    C334   O335      0.89564      .   S
    Zr26   O335      1.82055      .   S
    C334   O336      0.88736      .   S
    Zr8    O336      1.81477      .   S
    C334   O337      1.14783      .   S
    N40    O337      2.32074  1_556   S
    C338   O339      0.89472      .   S
    Zr18   O339      1.81865      .   S
    C338   O340      0.88847      .   S
    Zr2    O340      1.81682      .   S
    C338   O341      1.06429      .   S
    N36    O341      2.06921  1_545   S
    C342   O343      1.19130      .   S
    N35    O343      2.45737  1_565   S
    C342   O344      0.89569      .   S
    Zr20   O344      1.82196      .   S
    C342   O345      0.88742      .   S
    Zr8    O345      1.81485      .   S
    C346   O347      0.62162      .   S
    Zr14   O347      1.60657      .   S
    C346   O348      0.64310      .   S
    Zr28   O348      1.64076      .   S
    C349   O350      0.63158      .   S
    Zr18   O350      1.58502  1_455   S
    C349   O351      0.64262      .   S
    Zr14   O351      1.60131      .   S
    C352   O353      0.64214      .   S
    Zr20   O353      1.63879      .   S
    C352   O354      0.62144      .   S
    Zr8    O354      1.60632      .   S
    C355   O356      1.14785      .   S
    N37    O356      2.32089  1_546   S
    C355   O357      0.89567      .   S
    Zr28   O357      1.82054      .   S
    C355   O358      0.88739      .   S
    Zr14   O358      1.81477      .   S
    C359   O360      0.62161      .   S
    Zr14   O360      1.60644      .   S
    C359   O361      0.64236      .   S
    Zr18   O361      1.63905  1_455   S
    C362   O363      0.64164      .   S
    Zr8    O363      1.59783      .   S
    C362   O364      0.63220      .   S
    Zr26   O364      1.58734      .   S
    C365   O366      0.64260      .   S
    Zr8    O366      1.60126      .   S
    C365   O367      0.63154      .   S
    Zr20   O367      1.58488      .   S
    C368   O369      0.62144      .   S
    Zr2    O369      1.60567      .   S
    C368   O370      0.64307      .   S
    Zr26   O370      1.64117      .   S
