# CIF file generated by openbabel 2.4.90, see http://openbabel.sf.net
data_I
_chemical_name_common ''
_cell_length_a 15.191
_cell_length_b 15.284
_cell_length_c 22.58
_cell_angle_alpha 107.064
_cell_angle_beta 106.784
_cell_angle_gamma 97.779
_space_group_name_H-M_alt 'P 1'
_space_group_name_Hall 'P 1'
loop_
    _symmetry_equiv_pos_as_xyz
    x,y,z
loop_
    _atom_site_label
    _atom_site_type_symbol
    _atom_site_fract_x
    _atom_site_fract_y
    _atom_site_fract_z
    _atom_site_occupancy
    Zr0     Zr   0.14461   0.14466   0.28974   1.000
    Zr1     Zr   0.14451   0.14474   0.78974   1.000
    Zr2     Zr   0.14441   0.64479   0.28976   1.000
    Zr3     Zr   0.14443   0.64480   0.78976   1.000
    Zr4     Zr   0.64440   0.14480   0.28976   1.000
    Zr5     Zr   0.64442   0.14480   0.78970   1.000
    Zr6     Zr   0.64460   0.64466   0.28973   1.000
    Zr7     Zr   0.64451   0.64472   0.78975   1.000
    Zr8     Zr   0.35528   0.35551   0.21022   1.000
    Zr9     Zr   0.35530   0.35551   0.71023   1.000
    Zr10    Zr   0.35548   0.85539   0.21020   1.000
    Zr11    Zr   0.35539   0.85544   0.71021   1.000
    Zr12    Zr   0.85548   0.35539   0.21021   1.000
    Zr13    Zr   0.85538   0.35546   0.71021   1.000
    Zr14    Zr   0.85527   0.85550   0.21022   1.000
    Zr15    Zr   0.85530   0.85551   0.71020   1.000
    Zr16    Zr   0.00000   0.25000   0.25002   1.000
    Zr17    Zr   0.00008   0.25036   0.75008   1.000
    Zr18    Zr   0.00018   0.75070   0.25014   1.000
    Zr19    Zr   0.00017   0.75067   0.75016   1.000
    Zr20    Zr   0.50018   0.25074   0.25014   1.000
    Zr21    Zr   0.50015   0.25066   0.75016   1.000
    Zr22    Zr   0.50002   0.75007   0.25003   1.000
    Zr23    Zr   0.50007   0.75032   0.75007   1.000
    Zr24    Zr   0.25033   0.00016   0.25000   1.000
    Zr25    Zr   0.24990   0.00007   0.74998   1.000
    Zr26    Zr   0.24940   0.49993   0.24982   1.000
    Zr27    Zr   0.24950   0.49997   0.74980   1.000
    Zr28    Zr   0.74939   0.99993   0.24982   1.000
    Zr29    Zr   0.74949   0.99998   0.74985   1.000
    Zr30    Zr   0.75033   0.50015   0.25008   1.000
    Zr31    Zr   0.74989   0.50006   0.74990   1.000
    Zr32    Zr   0.51571   0.16842   0.33575   1.000
    Zr33    Zr   0.51571   0.16833   0.83575   1.000
    Zr34    Zr   0.51577   0.66797   0.33560   1.000
    Zr35    Zr   0.51572   0.66812   0.83569   1.000
    Zr36    Zr   0.00000   0.16795   0.33567   1.000
    Zr37    Zr   0.00000   0.16814   0.83569   1.000
    Zr38    Zr   0.00000   0.66839   0.33574   1.000
    Zr39    Zr   0.00000   0.66835   0.83575   1.000
    Zr40    Zr   0.07421   0.46645   0.23076   1.000
    Zr41    Zr   0.07426   0.46651   0.73075   1.000
    Zr42    Zr   0.07480   0.96648   0.23081   1.000
    Zr43    Zr   0.07451   0.96651   0.73079   1.000
    Zr44    Zr   0.57478   0.46650   0.23081   1.000
    Zr45    Zr   0.57450   0.46651   0.73079   1.000
    Zr46    Zr   0.57420   0.96646   0.23075   1.000
    Zr47    Zr   0.57425   0.96649   0.73070   1.000
    Zr48    Zr   0.31929   0.16804   0.33587   1.000
    Zr49    Zr   0.31916   0.16791   0.83580   1.000
    Zr50    Zr   0.31900   0.66769   0.33570   1.000
    Zr51    Zr   0.31904   0.66775   0.83573   1.000
    Zr52    Zr   0.81898   0.16770   0.33571   1.000
    Zr53    Zr   0.81903   0.16776   0.83572   1.000
    Zr54    Zr   0.81929   0.66804   0.33587   1.000
    Zr55    Zr   0.81916   0.66789   0.83580   1.000
    Zr56    Zr   0.15633   0.26417   0.23087   1.000
    Zr57    Zr   0.15638   0.26422   0.73087   1.000
    Zr58    Zr   0.15650   0.76428   0.23090   1.000
    Zr59    Zr   0.15646   0.76429   0.73092   1.000
    Zr60    Zr   0.65650   0.26430   0.23094   1.000
    Zr61    Zr   0.65645   0.26429   0.73092   1.000
    Zr62    Zr   0.65634   0.76417   0.23086   1.000
    Zr63    Zr   0.65637   0.76421   0.73087   1.000
    Zr64    Zr   0.98430   0.33196   0.16430   1.000
    Zr65    Zr   0.98425   0.33214   0.66432   1.000
    Zr66    Zr   0.98422   0.83234   0.16430   1.000
    Zr67    Zr   0.98423   0.83230   0.66436   1.000
    Zr68    Zr   0.48421   0.33236   0.16434   1.000
    Zr69    Zr   0.48422   0.33229   0.66436   1.000
    Zr70    Zr   0.48430   0.83198   0.16430   1.000
    Zr71    Zr   0.48424   0.83212   0.66432   1.000
    Zr72    Zr   0.42556   0.03377   0.26917   1.000
    Zr73    Zr   0.42528   0.03376   0.76915   1.000
    Zr74    Zr   0.42497   0.53371   0.26910   1.000
    Zr75    Zr   0.42503   0.53374   0.76911   1.000
    Zr76    Zr   0.92497   0.03370   0.26911   1.000
    Zr77    Zr   0.92502   0.03375   0.76910   1.000
    Zr78    Zr   0.92557   0.53375   0.26917   1.000
    Zr79    Zr   0.92527   0.53376   0.76915   1.000
    Zr80    Zr   0.18059   0.33203   0.16405   1.000
    Zr81    Zr   0.18063   0.33209   0.66407   1.000
    Zr82    Zr   0.18090   0.83238   0.16422   1.000
    Zr83    Zr   0.18077   0.83223   0.66415   1.000
    Zr84    Zr   0.68090   0.33238   0.16422   1.000
    Zr85    Zr   0.68075   0.33224   0.66415   1.000
    Zr86    Zr   0.68059   0.83202   0.16405   1.000
    Zr87    Zr   0.68063   0.83208   0.66407   1.000
    Zr88    Zr   0.34373   0.23602   0.26910   1.000
    Zr89    Zr   0.34367   0.23600   0.76909   1.000
    Zr90    Zr   0.34356   0.73589   0.26903   1.000
    Zr91    Zr   0.34360   0.73593   0.76904   1.000
    Zr92    Zr   0.84354   0.23589   0.26904   1.000
    Zr93    Zr   0.84359   0.23594   0.76904   1.000
    Zr94    Zr   0.84372   0.73600   0.26910   1.000
    Zr95    Zr   0.84368   0.73601   0.76909   1.000
    Zr96    Zr   0.22716   0.33606   0.70000   1.000
    Zr97    Zr   0.21087   0.03510   0.87666   1.000
    Zr98    Zr   0.21065   0.53497   0.37658   1.000
    Zr99    Zr   0.21071   0.53503   0.87660   1.000
    Zr100   Zr   0.71064   0.03500   0.37658   1.000
    Zr101   Zr   0.71070   0.03502   0.87660   1.000
    Zr102   Zr   0.71101   0.53510   0.37667   1.000
    Zr103   Zr   0.71086   0.53508   0.87666   1.000
    Zr104   Zr   0.16501   0.34155   0.37674   1.000
    Zr105   Zr   0.16504   0.34166   0.87675   1.000
    Zr106   Zr   0.16513   0.84176   0.37682   1.000
    Zr107   Zr   0.16513   0.84178   0.87682   1.000
    Zr108   Zr   0.66513   0.34179   0.37682   1.000
    Zr109   Zr   0.66511   0.34176   0.87682   1.000
    Zr110   Zr   0.66502   0.84157   0.37670   1.000
    Zr111   Zr   0.66502   0.84163   0.87670   1.000
    Zr112   Zr   0.28901   0.46520   0.12333   1.000
    Zr113   Zr   0.28907   0.46522   0.62335   1.000
    Zr114   Zr   0.28938   0.96530   0.12342   1.000
    Zr115   Zr   0.28924   0.96528   0.62341   1.000
    Zr116   Zr   0.78937   0.46529   0.12342   1.000
    Zr117   Zr   0.78923   0.46530   0.62341   1.000
    Zr118   Zr   0.78900   0.96518   0.12333   1.000
    Zr119   Zr   0.78906   0.96523   0.62335   1.000
    Zr120   Zr   0.33506   0.15880   0.12332   1.000
    Zr121   Zr   0.33505   0.15879   0.62332   1.000
    Zr122   Zr   0.33495   0.65861   0.12324   1.000
    Zr123   Zr   0.33497   0.65867   0.62324   1.000
    Zr124   Zr   0.83494   0.15859   0.12323   1.000
    Zr125   Zr   0.83496   0.15869   0.62324   1.000
    Zr126   Zr   0.83505   0.65878   0.12331   1.000
    Zr127   Zr   0.83505   0.65880   0.62332   1.000
    Zr128   Zr   0.26214   0.09239   0.40000   1.000
    Zr129   Zr   0.01124   0.14562   0.28948   1.000
    Zr130   Zr   0.01121   0.14585   0.78950   1.000
    Zr131   Zr   0.01121   0.64611   0.28956   1.000
    Zr132   Zr   0.01121   0.64608   0.78957   1.000
    Zr133   Zr   0.51120   0.14614   0.28957   1.000
    Zr134   Zr   0.51120   0.14607   0.78956   1.000
    Zr135   Zr   0.51124   0.64565   0.28948   1.000
    Zr136   Zr   0.51120   0.64583   0.78950   1.000
    Zr137   Zr   0.12032   0.01619   0.22744   1.000
    Zr138   Zr   0.12002   0.01622   0.72740   1.000
    Zr139   Zr   0.11963   0.51620   0.22734   1.000
    Zr140   Zr   0.11973   0.51623   0.72735   1.000
    Zr141   Zr   0.61963   0.01622   0.22734   1.000
    Zr142   Zr   0.61971   0.01623   0.72735   1.000
    Zr143   Zr   0.62032   0.51619   0.22744   1.000
    Zr144   Zr   0.62001   0.51620   0.72740   1.000
    Zr145   Zr   0.16635   0.09787   0.36864   1.000
    Zr146   Zr   0.16629   0.09795   0.86867   1.000
    Zr147   Zr   0.16614   0.59789   0.36860   1.000
    Zr148   Zr   0.16620   0.59795   0.86865   1.000
    Zr149   Zr   0.66614   0.09792   0.36864   1.000
    Zr150   Zr   0.66618   0.09793   0.86865   1.000
    Zr151   Zr   0.66636   0.59789   0.36864   1.000
    Zr152   Zr   0.66628   0.59793   0.86867   1.000
    Zr153   Zr   0.24817   0.48859   0.33784   1.000
    Zr154   Zr   0.24825   0.48865   0.83788   1.000
    Zr155   Zr   0.24873   0.98879   0.33804   1.000
    Zr156   Zr   0.24850   0.98874   0.83798   1.000
    Zr157   Zr   0.74873   0.48881   0.33805   1.000
    Zr158   Zr   0.74848   0.48874   0.83798   1.000
    Zr159   Zr   0.74817   0.98859   0.33785   1.000
    Zr160   Zr   0.74825   0.98863   0.83787   1.000
    Zr161   Zr   0.27791   0.14401   0.28967   1.000
    Zr162   Zr   0.27774   0.14396   0.78962   1.000
    Zr163   Zr   0.27752   0.64385   0.28950   1.000
    Zr164   Zr   0.27757   0.64389   0.78950   1.000
    Zr165   Zr   0.77751   0.14386   0.28954   1.000
    Zr166   Zr   0.77756   0.14390   0.78955   1.000
    Zr167   Zr   0.77791   0.64400   0.28967   1.000
    Zr168   Zr   0.77773   0.64395   0.78962   1.000
    Zr169   Zr   0.10741   0.21116   0.22751   1.000
    Zr170   Zr   0.10740   0.21128   0.72753   1.000
    Zr171   Zr   0.10743   0.71141   0.22757   1.000
    Zr172   Zr   0.10741   0.71141   0.72757   1.000
    Zr173   Zr   0.60742   0.21143   0.22757   1.000
    Zr174   Zr   0.60740   0.21141   0.72757   1.000
    Zr175   Zr   0.60741   0.71118   0.22751   1.000
    Zr176   Zr   0.60739   0.71126   0.72752   1.000
    Zr177   Zr   0.20134   0.27050   0.36872   1.000
    Zr178   Zr   0.20127   0.27055   0.86872   1.000
    Zr179   Zr   0.20124   0.77058   0.36870   1.000
    Zr180   Zr   0.20126   0.77061   0.86877   1.000
    Zr181   Zr   0.70124   0.27061   0.36877   1.000
    Zr182   Zr   0.70124   0.27060   0.86878   1.000
    Zr183   Zr   0.70133   0.77051   0.36872   1.000
    Zr184   Zr   0.70127   0.77054   0.86872   1.000
    Zr185   Zr   0.08893   0.34931   0.33813   1.000
    Zr186   Zr   0.08898   0.34953   0.83815   1.000
    Zr187   Zr   0.08917   0.84979   0.33820   1.000
    Zr188   Zr   0.08913   0.84976   0.83823   1.000
    Zr189   Zr   0.58917   0.34982   0.33820   1.000
    Zr190   Zr   0.58910   0.34974   0.83823   1.000
    Zr191   Zr   0.58893   0.84935   0.33814   1.000
    Zr192   Zr   0.58897   0.84950   0.83810   1.000
    Zr193   Zr   0.48874   0.35481   0.21053   1.000
    Zr194   Zr   0.48875   0.35475   0.71054   1.000
    Zr195   Zr   0.48881   0.85439   0.21040   1.000
    Zr196   Zr   0.48876   0.85455   0.71050   1.000
    Zr197   Zr   0.98879   0.35435   0.21048   1.000
    Zr198   Zr   0.98876   0.35457   0.71050   1.000
    Zr199   Zr   0.98874   0.85479   0.21053   1.000
    Zr200   Zr   0.98874   0.85476   0.71054   1.000
    Zr201   Zr   0.37949   0.48401   0.27200   1.000
    Zr202   Zr   0.37958   0.48402   0.77250   1.000
    Zr203   Zr   0.38019   0.98399   0.27260   1.000
    Zr204   Zr   0.37988   0.98400   0.77257   1.000
    Zr205   Zr   0.88018   0.48399   0.27260   1.000
    Zr206   Zr   0.87987   0.48401   0.77257   1.000
    Zr207   Zr   0.87948   0.98399   0.27250   1.000
    Zr208   Zr   0.87957   0.98402   0.77251   1.000
    Zr209   Zr   0.33364   0.40241   0.13137   1.000
    Zr210   Zr   0.33370   0.40242   0.63138   1.000
    Zr211   Zr   0.33388   0.90237   0.13137   1.000
    Zr212   Zr   0.33380   0.90241   0.63100   1.000
    Zr213   Zr   0.83386   0.40236   0.13137   1.000
    Zr214   Zr   0.83379   0.40243   0.63140   1.000
    Zr215   Zr   0.83364   0.90239   0.13137   1.000
    Zr216   Zr   0.83369   0.90243   0.63138   1.000
    Zr217   Zr   0.25171   0.01159   0.16209   1.000
    Zr218   Zr   0.25149   0.01154   0.66204   1.000
    Zr219   Zr   0.25113   0.51138   0.16189   1.000
    Zr220   Zr   0.25124   0.51143   0.66193   1.000
    Zr221   Zr   0.75113   0.01138   0.16189   1.000
    Zr222   Zr   0.75122   0.01144   0.66193   1.000
    Zr223   Zr   0.75171   0.51158   0.16209   1.000
    Zr224   Zr   0.75149   0.51154   0.66204   1.000
    Zr225   Zr   0.22194   0.35613   0.21026   1.000
    Zr226   Zr   0.22199   0.35617   0.71027   1.000
    Zr227   Zr   0.22235   0.85628   0.21000   1.000
    Zr228   Zr   0.22218   0.85622   0.71034   1.000
    Zr229   Zr   0.72235   0.35628   0.21040   1.000
    Zr230   Zr   0.72216   0.35623   0.71034   1.000
    Zr231   Zr   0.72194   0.85612   0.21026   1.000
    Zr232   Zr   0.72199   0.85616   0.71027   1.000
    Zr233   Zr   0.39256   0.28915   0.27252   1.000
    Zr234   Zr   0.39254   0.28912   0.77250   1.000
    Zr235   Zr   0.39255   0.78889   0.27240   1.000
    Zr236   Zr   0.39253   0.78897   0.77248   1.000
    Zr237   Zr   0.89254   0.28888   0.27240   1.000
    Zr238   Zr   0.89252   0.28899   0.77248   1.000
    Zr239   Zr   0.89256   0.78913   0.27252   1.000
    Zr240   Zr   0.89254   0.78912   0.77253   1.000
    Zr241   Zr   0.29863   0.22981   0.13128   1.000
    Zr242   Zr   0.29863   0.22980   0.63129   1.000
    Zr243   Zr   0.29871   0.72973   0.13123   1.000
    Zr244   Zr   0.29865   0.72974   0.63123   1.000
    Zr245   Zr   0.79870   0.22971   0.13123   1.000
    Zr246   Zr   0.79864   0.22977   0.63123   1.000
    Zr247   Zr   0.79862   0.72979   0.13128   1.000
    Zr248   Zr   0.79863   0.72981   0.63129   1.000
    Zr249   Zr   0.41115   0.15117   0.16197   1.000
    Zr250   Zr   0.41110   0.15112   0.66199   1.000
    Zr251   Zr   0.41096   0.65078   0.16188   1.000
    Zr252   Zr   0.41099   0.65091   0.66190   1.000
    Zr253   Zr   0.91093   0.15074   0.16188   1.000
    Zr254   Zr   0.91099   0.15094   0.66190   1.000
    Zr255   Zr   0.91114   0.65114   0.16197   1.000
    Zr256   Zr   0.91110   0.65113   0.66200   1.000
    O257    O    0.81682   0.19415   0.12723   1.000
    O258    O    0.87294   0.15467   0.14255   1.000
    O259    O    0.31683   0.69417   0.12723   1.000
    O260    O    0.37296   0.65470   0.14256   1.000
    O261    O    0.81683   0.69428   0.12729   1.000
    O262    O    0.87310   0.65496   0.14264   1.000
    O263    O    0.31685   0.19431   0.12730   1.000
    O264    O    0.37311   0.15499   0.14264   1.000
    O265    O    0.31133   0.43381   0.12735   1.000
    O266    O    0.27007   0.48829   0.14261   1.000
    O267    O    0.81132   0.93379   0.12735   1.000
    O268    O    0.77006   0.98828   0.14261   1.000
    O269    O    0.31163   0.93383   0.12739   1.000
    O270    O    0.27055   0.98844   0.14275   1.000
    O271    O    0.81161   0.43382   0.12739   1.000
    O272    O    0.77054   0.48843   0.14275   1.000
    O273    O    0.20126   0.34408   0.18715   1.000
    O274    O    0.70126   0.84407   0.18715   1.000
    O275    O    0.70162   0.34433   0.18731   1.000
    O276    O    0.20163   0.84433   0.18711   1.000
    O277    O    0.98648   0.84356   0.18741   1.000
    O278    O    0.98655   0.34315   0.18739   1.000
    O279    O    0.48655   0.84318   0.18735   1.000
    O280    O    0.48648   0.34358   0.18743   1.000
    O281    O    0.28892   0.85583   0.21010   1.000
    O282    O    0.78891   0.35583   0.21030   1.000
    O283    O    0.42201   0.35516   0.21037   1.000
    O284    O    0.36738   0.41976   0.24111   1.000
    O285    O    0.92201   0.85514   0.21037   1.000
    O286    O    0.73566   0.92803   0.23004   1.000
    O287    O    0.23567   0.42803   0.23004   1.000
    O288    O    0.59691   0.99134   0.22904   1.000
    O289    O    0.68451   0.00808   0.23858   1.000
    O290    O    0.09692   0.49133   0.22905   1.000
    O291    O    0.18452   0.50806   0.23858   1.000
    O292    O    0.59755   0.49134   0.22912   1.000
    O293    O    0.68533   0.50817   0.23876   1.000
    O294    O    0.09756   0.99134   0.22912   1.000
    O295    O    0.18533   0.00817   0.23872   1.000
    O296    O    0.13187   0.23766   0.22919   1.000
    O297    O    0.05371   0.23058   0.23876   1.000
    O298    O    0.63187   0.73767   0.22918   1.000
    O299    O    0.55371   0.73062   0.23877   1.000
    O300    O    0.13197   0.73785   0.22923   1.000
    O301    O    0.05380   0.73106   0.23885   1.000
    O302    O    0.63196   0.23787   0.22925   1.000
    O303    O    0.55380   0.23109   0.23885   1.000
    O304    O    0.81444   0.99196   0.26116   1.000
    O305    O    0.31526   0.99208   0.26130   1.000
    O306    O    0.26412   0.07208   0.26983   1.000
    O307    O    0.94627   0.26944   0.26121   1.000
    O308    O    0.44629   0.76948   0.26121   1.000
    O309    O    0.81525   0.49207   0.26134   1.000
    O310    O    0.76412   0.57208   0.26987   1.000
    O311    O    0.44637   0.26994   0.26133   1.000
    O312    O    0.94637   0.76992   0.26133   1.000
    O313    O    0.36806   0.76239   0.27071   1.000
    O314    O    0.86804   0.26239   0.27072   1.000
    O315    O    0.40223   0.50886   0.27055   1.000
    O316    O    0.86814   0.76256   0.27081   1.000
    O317    O    0.36815   0.26258   0.27081   1.000
    O318    O    0.90223   0.00885   0.27080   1.000
    O319    O    0.90287   0.50887   0.27088   1.000
    O320    O    0.40288   0.00888   0.27088   1.000
    O321    O    0.57792   0.64516   0.28960   1.000
    O322    O    0.51351   0.65681   0.31254   1.000
    O323    O    0.07793   0.14514   0.28961   1.000
    O324    O    0.00562   0.15678   0.31257   1.000
    O325    O    0.29826   0.65577   0.31260   1.000
    O326    O    0.79825   0.15578   0.31262   1.000
    O327    O    0.07781   0.64545   0.28966   1.000
    O328    O    0.00560   0.65725   0.31265   1.000
    O329    O    0.57780   0.14547   0.28966   1.000
    O330    O    0.51346   0.15728   0.31266   1.000
    O331    O    0.79860   0.65602   0.31277   1.000
    O332    O    0.29860   0.15602   0.31277   1.000
    O333    O    0.22941   0.51178   0.35721   1.000
    O334    O    0.72941   0.01180   0.35721   1.000
    O335    O    0.72987   0.51196   0.35736   1.000
    O336    O    0.12697   0.34543   0.35743   1.000
    O337    O    0.62698   0.84546   0.35742   1.000
    O338    O    0.12715   0.84577   0.35751   1.000
    O339    O    0.62715   0.34581   0.35751   1.000
    O340    O    0.18840   0.56643   0.37259   1.000
    O341    O    0.68839   0.06646   0.37261   1.000
    O342    O    0.68868   0.56650   0.37265   1.000
    O343    O    0.18318   0.80617   0.37276   1.000
    O344    O    0.68318   0.80604   0.37271   1.000
    O345    O    0.18318   0.30602   0.37273   1.000
    O346    O    0.68318   0.30620   0.37279   1.000
    O347    O    0.81680   0.19423   0.62723   1.000
    O348    O    0.87297   0.15482   0.64257   1.000
    O349    O    0.31681   0.69421   0.62723   1.000
    O350    O    0.37298   0.65479   0.64257   1.000
    O351    O    0.81684   0.69430   0.62730   1.000
    O352    O    0.87308   0.65496   0.64266   1.000
    O353    O    0.31684   0.19430   0.62730   1.000
    O354    O    0.37307   0.15495   0.64265   1.000
    O355    O    0.81138   0.93383   0.62736   1.000
    O356    O    0.77014   0.98834   0.64264   1.000
    O357    O    0.31138   0.43382   0.62736   1.000
    O358    O    0.27015   0.48833   0.64264   1.000
    O359    O    0.81151   0.43386   0.62740   1.000
    O360    O    0.77036   0.48842   0.64272   1.000
    O361    O    0.31152   0.93384   0.62720   1.000
    O362    O    0.27036   0.98841   0.64272   1.000
    O363    O    0.70131   0.84412   0.68717   1.000
    O364    O    0.20131   0.34413   0.68717   1.000
    O365    O    0.70146   0.34423   0.68724   1.000
    O366    O    0.20147   0.84422   0.68724   1.000
    O367    O    0.48650   0.84333   0.68741   1.000
    O368    O    0.98650   0.34336   0.68741   1.000
    O369    O    0.48648   0.34352   0.68745   1.000
    O370    O    0.98649   0.84353   0.68745   1.000
    O371    O    0.92202   0.85514   0.71037   1.000
    O372    O    0.42208   0.85499   0.71035   1.000
    O373    O    0.92207   0.35502   0.71035   1.000
    O374    O    0.29123   0.34579   0.70511   1.000
    O375    O    0.73574   0.92807   0.73006   1.000
    O376    O    0.23575   0.42807   0.73003   1.000
    O377    O    0.73603   0.42814   0.73012   1.000
    O378    O    0.23604   0.92814   0.73016   1.000
    O379    O    0.49445   0.30271   0.73035   1.000
    O380    O    0.09699   0.49137   0.72905   1.000
    O381    O    0.18462   0.50810   0.73857   1.000
    O382    O    0.59698   0.99136   0.72902   1.000
    O383    O    0.68460   0.00810   0.73860   1.000
    O384    O    0.59726   0.49136   0.72909   1.000
    O385    O    0.68495   0.50813   0.73865   1.000
    O386    O    0.09727   0.99136   0.72909   1.000
    O387    O    0.18496   0.00814   0.73869   1.000
    O388    O    0.63188   0.73773   0.72919   1.000
    O389    O    0.55373   0.73079   0.73879   1.000
    O390    O    0.13189   0.23775   0.72920   1.000
    O391    O    0.05374   0.23082   0.73880   1.000
    O392    O    0.13194   0.73785   0.72924   1.000
    O393    O    0.05379   0.73104   0.73886   1.000
    O394    O    0.63192   0.23785   0.72924   1.000
    O395    O    0.55378   0.23103   0.73886   1.000
    O396    O    0.31454   0.49200   0.76115   1.000
    O397    O    0.81453   0.99200   0.76118   1.000
    O398    O    0.81488   0.49204   0.76123   1.000
    O399    O    0.31489   0.99203   0.76127   1.000
    O400    O    0.44630   0.76964   0.76127   1.000
    O401    O    0.94630   0.26968   0.76128   1.000
    O402    O    0.94635   0.76990   0.76134   1.000
    O403    O    0.44635   0.26989   0.76133   1.000
    O404    O    0.86806   0.26247   0.77076   1.000
    O405    O    0.36807   0.76245   0.77076   1.000
    O406    O    0.86811   0.76257   0.77081   1.000
    O407    O    0.36811   0.26256   0.77079   1.000
    O408    O    0.90229   0.00889   0.77080   1.000
    O409    O    0.40231   0.50888   0.77080   1.000
    O410    O    0.90257   0.50889   0.77086   1.000
    O411    O    0.40258   0.00888   0.77086   1.000
    O412    O    0.07786   0.14529   0.78962   1.000
    O413    O    0.00560   0.15700   0.81259   1.000
    O414    O    0.29830   0.65582   0.81261   1.000
    O415    O    0.57786   0.64527   0.78962   1.000
    O416    O    0.51346   0.65697   0.81259   1.000
    O417    O    0.71099   0.14435   0.78962   1.000
    O418    O    0.79829   0.15583   0.81263   1.000
    O419    O    0.51345   0.15720   0.81265   1.000
    O420    O    0.07782   0.64544   0.78966   1.000
    O421    O    0.00561   0.65721   0.81266   1.000
    O422    O    0.29845   0.15593   0.81271   1.000
    O423    O    0.79845   0.65592   0.81271   1.000
    O424    O    0.72947   0.01182   0.85723   1.000
    O425    O    0.22948   0.51184   0.85724   1.000
    O426    O    0.22969   0.01192   0.85732   1.000
    O427    O    0.72967   0.51191   0.85732   1.000
    O428    O    0.62700   0.84556   0.85740   1.000
    O429    O    0.12701   0.34559   0.85745   1.000
    O430    O    0.62711   0.34575   0.85752   1.000
    O431    O    0.12713   0.84577   0.85752   1.000
    O432    O    0.18846   0.56649   0.87262   1.000
    O433    O    0.68844   0.06648   0.87262   1.000
    O434    O    0.18858   0.06653   0.87266   1.000
    O435    O    0.68857   0.56650   0.87266   1.000
    O436    O    0.68315   0.80608   0.87271   1.000
    O437    O    0.18315   0.30611   0.87273   1.000
    O438    O    0.18319   0.80619   0.87279   1.000
    O439    O    0.68318   0.30618   0.87280   1.000
    O440    O    0.00562   0.19781   0.26975   1.000
    O441    O    0.00565   0.19811   0.76979   1.000
    O442    O    0.00569   0.69841   0.26985   1.000
    O443    O    0.00569   0.69838   0.76986   1.000
    O444    O    0.50569   0.19844   0.26985   1.000
    O445    O    0.57781   0.14543   0.78963   1.000
    O446    O    0.50567   0.19836   0.76986   1.000
    O447    O    0.50563   0.69786   0.26975   1.000
    O448    O    0.50564   0.69807   0.76978   1.000
    O449    O    0.13247   0.08043   0.25859   1.000
    O450    O    0.13227   0.08048   0.75857   1.000
    O451    O    0.13202   0.58049   0.25855   1.000
    O452    O    0.13208   0.58052   0.75855   1.000
    O453    O    0.63202   0.08051   0.25855   1.000
    O454    O    0.63207   0.08051   0.75852   1.000
    O455    O    0.63246   0.58043   0.25858   1.000
    O456    O    0.63226   0.58046   0.75857   1.000
    O457    O    0.15548   0.12127   0.32919   1.000
    O458    O    0.21424   0.09513   0.38432   1.000
    O459    O    0.15540   0.12134   0.82920   1.000
    O460    O    0.15528   0.62134   0.32918   1.000
    O461    O    0.15532   0.62137   0.82920   1.000
    O462    O    0.65527   0.12136   0.32920   1.000
    O463    O    0.65530   0.12137   0.82917   1.000
    O464    O    0.65548   0.62128   0.32918   1.000
    O465    O    0.65540   0.62133   0.82921   1.000
    O466    O    0.24878   0.49426   0.29383   1.000
    O467    O    0.24888   0.49431   0.79384   1.000
    O468    O    0.24953   0.99447   0.29402   1.000
    O469    O    0.25543   0.04059   0.36902   1.000
    O470    O    0.24920   0.99441   0.79398   1.000
    O471    O    0.74953   0.49448   0.29406   1.000
    O472    O    0.74919   0.49440   0.79394   1.000
    O473    O    0.74878   0.99426   0.29383   1.000
    O474    O    0.74887   0.99430   0.79386   1.000
    O475    O    0.21126   0.14433   0.28970   1.000
    O476    O    0.21113   0.14435   0.78968   1.000
    O477    O    0.26382   0.07201   0.76980   1.000
    O478    O    0.21097   0.64432   0.28963   1.000
    O479    O    0.26346   0.57189   0.26966   1.000
    O480    O    0.21100   0.64435   0.78963   1.000
    O481    O    0.26354   0.57193   0.76965   1.000
    O482    O    0.71096   0.14433   0.28965   1.000
    O483    O    0.76345   0.07190   0.26968   1.000
    O484    O    0.76352   0.07194   0.76970   1.000
    O485    O    0.71125   0.64433   0.28970   1.000
    O486    O    0.71112   0.64433   0.78968   1.000
    O487    O    0.76381   0.57200   0.76976   1.000
    O488    O    0.12601   0.17791   0.25862   1.000
    O489    O    0.12596   0.17801   0.75863   1.000
    O490    O    0.12592   0.67810   0.25866   1.000
    O491    O    0.12592   0.67811   0.75866   1.000
    O492    O    0.62591   0.17812   0.25866   1.000
    O493    O    0.62591   0.17810   0.75863   1.000
    O494    O    0.62600   0.67792   0.25862   1.000
    O495    O    0.62595   0.67799   0.75863   1.000
    O496    O    0.17298   0.20758   0.32923   1.000
    O497    O    0.17289   0.20765   0.82923   1.000
    O498    O    0.17283   0.70768   0.32923   1.000
    O499    O    0.17285   0.70770   0.82927   1.000
    O500    O    0.67282   0.20771   0.32926   1.000
    O501    O    0.67283   0.20770   0.82924   1.000
    O502    O    0.67297   0.70759   0.32922   1.000
    O503    O    0.67289   0.70763   0.82923   1.000
    O504    O    0.04446   0.29966   0.29407   1.000
    O505    O    0.04453   0.29994   0.79411   1.000
    O506    O    0.04468   0.80024   0.29417   1.000
    O507    O    0.04465   0.80022   0.79419   1.000
    O508    O    0.54467   0.30028   0.29417   1.000
    O509    O    0.54463   0.30020   0.79419   1.000
    O510    O    0.54448   0.79971   0.29408   1.000
    O511    O    0.54452   0.79991   0.79408   1.000
    O512    O    0.49446   0.30277   0.23033   1.000
    O513    O    0.42202   0.35513   0.71038   1.000
    O514    O    0.42214   0.85489   0.21030   1.000
    O515    O    0.49441   0.80223   0.23021   1.000
    O516    O    0.49442   0.80243   0.73028   1.000
    O517    O    0.92213   0.35487   0.21034   1.000
    O518    O    0.99440   0.30218   0.23025   1.000
    O519    O    0.99442   0.30247   0.73029   1.000
    O520    O    0.99446   0.80275   0.23033   1.000
    O521    O    0.99446   0.80272   0.73035   1.000
    O522    O    0.31444   0.49197   0.26091   1.000
    O523    O    0.36744   0.41977   0.74136   1.000
    O524    O    0.36783   0.91969   0.24140   1.000
    O525    O    0.36764   0.91972   0.74139   1.000
    O526    O    0.86783   0.41969   0.24140   1.000
    O527    O    0.86762   0.41973   0.74139   1.000
    O528    O    0.86738   0.91975   0.24136   1.000
    O529    O    0.86743   0.91977   0.74135   1.000
    O530    O    0.34446   0.37896   0.17079   1.000
    O531    O    0.34450   0.37897   0.67080   1.000
    O532    O    0.34468   0.87888   0.17078   1.000
    O533    O    0.34460   0.87893   0.67060   1.000
    O534    O    0.84467   0.37887   0.17079   1.000
    O535    O    0.84459   0.37894   0.67080   1.000
    O536    O    0.84446   0.87895   0.17079   1.000
    O537    O    0.84449   0.87897   0.67079   1.000
    O538    O    0.25102   0.00588   0.20604   1.000
    O539    O    0.25070   0.00580   0.70601   1.000
    O540    O    0.25026   0.50565   0.20585   1.000
    O541    O    0.25037   0.50570   0.70586   1.000
    O542    O    0.75026   0.00566   0.20585   1.000
    O543    O    0.75035   0.00571   0.70589   1.000
    O544    O    0.75102   0.50586   0.20608   1.000
    O545    O    0.75069   0.50580   0.70597   1.000
    O546    O    0.28861   0.35582   0.21024   1.000
    O547    O    0.28865   0.35584   0.71025   1.000
    O548    O    0.23634   0.92822   0.23000   1.000
    O549    O    0.28878   0.85583   0.71027   1.000
    O550    O    0.73634   0.42822   0.23024   1.000
    O551    O    0.78877   0.35584   0.71027   1.000
    O552    O    0.78861   0.85581   0.21024   1.000
    O553    O    0.78864   0.85583   0.71023   1.000
    O554    O    0.37392   0.32233   0.24137   1.000
    O555    O    0.37392   0.32231   0.74136   1.000
    O556    O    0.37402   0.82214   0.24130   1.000
    O557    O    0.37396   0.82221   0.74134   1.000
    O558    O    0.87401   0.32213   0.24130   1.000
    O559    O    0.87395   0.32222   0.74134   1.000
    O560    O    0.87392   0.82231   0.24137   1.000
    O561    O    0.87392   0.82232   0.74136   1.000
    O562    O    0.32695   0.29266   0.17075   1.000
    O563    O    0.32697   0.29266   0.67076   1.000
    O564    O    0.32709   0.79256   0.17071   1.000
    O565    O    0.32702   0.79259   0.67072   1.000
    O566    O    0.82709   0.29255   0.17072   1.000
    O567    O    0.82701   0.29261   0.67072   1.000
    O568    O    0.82695   0.79264   0.17075   1.000
    O569    O    0.82697   0.79266   0.67074   1.000
    O570    O    0.45566   0.20095   0.20605   1.000
    O571    O    0.45563   0.20089   0.70607   1.000
    O572    O    0.45549   0.70042   0.20595   1.000
    O573    O    0.45553   0.70061   0.70598   1.000
    O574    O    0.95547   0.20037   0.20595   1.000
    O575    O    0.95553   0.20065   0.70599   1.000
    O576    O    0.95566   0.70092   0.20605   1.000
    O577    O    0.95564   0.70090   0.70608   1.000
    N578    N    0.24998   0.50012   0.49997   1.000
    O579    O    0.23420   0.51291   0.45414   1.000
    O580    O    0.26570   0.48731   0.54581   1.000
    O581    O    0.21956   0.44137   0.45417   1.000
    O582    O    0.28041   0.55887   0.54577   1.000
    N583    N    0.24438   0.95755   0.00006   1.000
    O584    O    0.27768   0.03765   0.04586   1.000
    O585    O    0.21684   0.92018   0.95427   1.000
    O586    O    0.26303   0.96607   0.04589   1.000
    O587    O    0.23151   0.99171   0.95423   1.000
    N588    N    0.24581   0.00411   0.48635   1.000
    O589    O    0.27838   0.06092   0.53900   1.000
    O590    O    0.26370   0.98934   0.53903   1.000
    O591    O    0.21725   0.03530   0.42950   1.000
    O592    O    0.23784   0.00802   0.42185   1.000
    O593    O    0.24119   0.03392   0.43734   1.000
    O594    O    0.21756   0.94345   0.44741   1.000
    N595    N    0.75324   0.02356   0.99996   1.000
    O596    O    0.73584   0.02466   0.95414   1.000
    O597    O    0.72120   0.95312   0.95416   1.000
    O598    O    0.78202   0.07056   0.04576   1.000
    O599    O    0.76730   0.99901   0.04579   1.000
    N600    N    0.74998   0.00014   0.49998   1.000
    O601    O    0.78041   0.05889   0.54578   1.000
    O602    O    0.73419   0.01294   0.45414   1.000
    O603    O    0.71957   0.94139   0.45418   1.000
    O604    O    0.76570   0.98733   0.54581   1.000
    N605    N    0.72600   0.44950   0.92676   1.000
    O606    O    0.71382   0.41222   0.90758   1.000
    O607    O    0.72231   0.48767   0.91757   1.000
    N608    N    0.25325   0.52358   0.99997   1.000
    O609    O    0.28204   0.57058   0.04577   1.000
    O610    O    0.23586   0.52467   0.95415   1.000
    O611    O    0.22120   0.45314   0.95419   1.000
    O612    O    0.26730   0.49904   0.04580   1.000
    N613    N    0.75017   0.50026   0.50006   1.000
    O614    O    0.76587   0.48743   0.54588   1.000
    O615    O    0.78056   0.55900   0.54586   1.000
    O616    O    0.71973   0.44154   0.45426   1.000
    O617    O    0.73444   0.51306   0.45423   1.000
    N618    N    0.77291   0.66430   0.00000   1.000
    N619    N    0.78041   0.53027   0.06000   1.000
    O620    O    0.79569   0.57399   0.07582   1.000
    O621    O    0.78104   0.50243   0.07586   1.000
    N622    N    0.72737   0.33616   0.00010   1.000
    N623    N    0.72713   0.83604   0.30000   1.000
    N624    N    0.76212   0.59236   0.20000   1.000
    O625    O    0.75952   0.57217   0.19052   1.000
    N626    N    0.27293   0.16432   0.20000   1.000
loop_
    _geom_bond_atom_site_label_1
    _geom_bond_atom_site_label_2
    _geom_bond_distance
    _geom_bond_site_symmetry_2
    _ccdc_geom_bond_type
    Zr124  O257      0.63667      .   S
    Zr245  O257      0.63667      .   S
    Zr124  O258      0.63756      .   S
    Zr253  O258      0.63756      .   S
    Zr122  O259      0.63668      .   S
    Zr243  O259      0.63668      .   S
    Zr122  O260      0.63750      .   S
    Zr251  O260      0.63750      .   S
    Zr126  O261      0.63677      .   S
    Zr247  O261      0.63677      .   S
    Zr126  O262      0.63746      .   S
    Zr255  O262      0.63746      .   S
    Zr120  O263      0.63677      .   S
    Zr241  O263      0.63677      .   S
    Zr120  O264      0.63739      .   S
    Zr249  O264      0.63739      .   S
    Zr112  O265      0.63662      .   S
    Zr209  O265      0.63662      .   S
    Zr112  O266      0.63755      .   S
    Zr219  O266      0.63755      .   S
    Zr118  O267      0.63662      .   S
    Zr215  O267      0.63662      .   S
    Zr118  O268      0.63761      .   S
    Zr221  O268      0.63761  1_545   S
    Zr114  O269      0.63665      .   S
    Zr211  O269      0.63665      .   S
    Zr114  O270      0.63759      .   S
    Zr217  O270      0.63759  1_545   S
    Zr116  O271      0.63666      .   S
    Zr213  O271      0.63666      .   S
    Zr116  O272      0.63749      .   S
    Zr223  O272      0.63749      .   S
    Zr80   O273      0.48793      .   S
    Zr225  O273      0.48793      .   S
    Zr86   O274      0.48793      .   S
    Zr231  O274      0.48793      .   S
    Zr84   O275      0.48791      .   S
    Zr229  O275      0.48791      .   S
    Zr82   O276      0.48444      .   S
    Zr227  O276      0.48444      .   S
    Zr66   O277      0.48840      .   S
    Zr199  O277      0.48840      .   S
    Zr64   O278      0.48792      .   S
    Zr197  O278      0.48792      .   S
    Zr70   O279      0.48704      .   S
    Zr195  O279      0.48704      .   S
    Zr68   O280      0.48794      .   S
    Zr193  O280      0.48794      .   S
    Zr227  O281      1.01149      .   S
    Zr10   O281      1.01149      .   S
    Zr12   O282      1.01278      .   S
    Zr229  O282      1.01278      .   S
    Zr8    O283      1.01349      .   S
    Zr193  O283      1.01349      .   S
    Zr8    O284      0.97960      .   S
    Zr201  O284      0.97960      .   S
    Zr14   O285      1.01348      .   S
    Zr199  O285      1.01348      .   S
    Zr231  O286      1.02320      .   S
    Zr28   O286      1.02320      .   S
    Zr225  O287      1.02308      .   S
    Zr26   O287      1.02308      .   S
    Zr141  O288      0.49586  1_545   S
    Zr46   O288      0.49586      .   S
    Zr141  O289      0.97905      .   S
    Zr28   O289      0.97905  1_565   S
    Zr139  O290      0.49585      .   S
    Zr40   O290      0.49585      .   S
    Zr139  O291      0.97904      .   S
    Zr26   O291      0.97904      .   S
    Zr143  O292      0.49576      .   S
    Zr44   O292      0.49576      .   S
    Zr143  O293      0.98023      .   S
    Zr30   O293      0.98023      .   S
    Zr137  O294      0.49579  1_545   S
    Zr42   O294      0.49579      .   S
    Zr137  O295      0.98019      .   S
    Zr24   O295      0.98019      .   S
    Zr169  O296      0.49568      .   S
    Zr56   O296      0.49568      .   S
    Zr169  O297      0.97944      .   S
    Zr16   O297      0.97944      .   S
    Zr175  O298      0.49569      .   S
    Zr62   O298      0.49569      .   S
    Zr175  O299      0.97947      .   S
    Zr22   O299      0.97947      .   S
    Zr171  O300      0.49580      .   S
    Zr58   O300      0.49580      .   S
    Zr171  O301      0.97974      .   S
    Zr18   O301      0.97974      .   S
    Zr173  O302      0.49563      .   S
    Zr60   O302      0.49563      .   S
    Zr173  O303      0.97974      .   S
    Zr20   O303      0.97974      .   S
    Zr28   O304      0.98062      .   S
    Zr207  O304      0.98062      .   S
    Zr24   O305      0.97947  1_545   S
    Zr203  O305      0.97947      .   S
    Zr24   O306      1.02343      .   S
    Zr161  O306      1.02343      .   S
    Zr16   O307      0.97930  1_455   S
    Zr237  O307      0.97930      .   S
    Zr22   O308      0.97918      .   S
    Zr235  O308      0.97918      .   S
    Zr30   O309      0.97938      .   S
    Zr205  O309      0.97938      .   S
    Zr30   O310      1.02340      .   S
    Zr167  O310      1.02340      .   S
    Zr20   O311      0.97917      .   S
    Zr233  O311      0.97917      .   S
    Zr18   O312      0.97927  1_455   S
    Zr239  O312      0.97927      .   S
    Zr90   O313      0.49590      .   S
    Zr235  O313      0.49590      .   S
    Zr92   O314      0.49591      .   S
    Zr237  O314      0.49591      .   S
    Zr74   O315      0.49293      .   S
    Zr201  O315      0.49293      .   S
    Zr94   O316      0.49567      .   S
    Zr239  O316      0.49567      .   S
    Zr88   O317      0.49567      .   S
    Zr233  O317      0.49567      .   S
    Zr76   O318      0.49578      .   S
    Zr207  O318      0.49578  1_565   S
    Zr78   O319      0.49578      .   S
    Zr205  O319      0.49578      .   S
    Zr72   O320      0.49582      .   S
    Zr203  O320      0.49582  1_565   S
    Zr135  O321      1.01318      .   S
    Zr6    O321      1.01318      .   S
    Zr135  O322      0.48717      .   S
    Zr34   O322      0.48717      .   S
    Zr129  O323      1.01320      .   S
    Zr0    O323      1.01320      .   S
    Zr129  O324      0.53459      .   S
    Zr36   O324      0.53459      .   S
    Zr163  O325      0.48816      .   S
    Zr50   O325      0.48816      .   S
    Zr165  O326      0.48789      .   S
    Zr52   O326      0.48789      .   S
    Zr131  O327      1.01254      .   S
    Zr2    O327      1.01254      .   S
    Zr131  O328      0.53434      .   S
    Zr38   O328      0.53434      .   S
    Zr133  O329      1.01255      .   S
    Zr4    O329      1.01255      .   S
    Zr133  O330      0.48785      .   S
    Zr32   O330      0.48785      .   S
    Zr167  O331      0.48790      .   S
    Zr54   O331      0.48790      .   S
    Zr161  O332      0.48791      .   S
    Zr48   O332      0.48791      .   S
    Zr153  O333      0.63757      .   S
    Zr98   O333      0.63757      .   S
    Zr159  O334      0.63759  1_565   S
    Zr100  O334      0.63759      .   S
    Zr157  O335      0.63751      .   S
    Zr102  O335      0.63751      .   S
    Zr185  O336      0.63756      .   S
    Zr104  O336      0.63756      .   S
    Zr191  O337      0.63736      .   S
    Zr110  O337      0.63736      .   S
    Zr187  O338      0.63771      .   S
    Zr106  O338      0.63771      .   S
    Zr189  O339      0.63773      .   S
    Zr108  O339      0.63773      .   S
    Zr147  O340      0.63674      .   S
    Zr98   O340      0.63674      .   S
    Zr149  O341      0.63665      .   S
    Zr100  O341      0.63665      .   S
    Zr151  O342      0.63662      .   S
    Zr102  O342      0.63662      .   S
    Zr179  O343      0.63657      .   S
    Zr106  O343      0.63657      .   S
    Zr183  O344      0.63660      .   S
    Zr110  O344      0.63660      .   S
    Zr177  O345      0.63663      .   S
    Zr104  O345      0.63663      .   S
    Zr181  O346      0.63655      .   S
    Zr108  O346      0.63655      .   S
    Zr125  O347      0.63673      .   S
    Zr246  O347      0.63673      .   S
    Zr125  O348      0.63749      .   S
    Zr254  O348      0.63749      .   S
    Zr123  O349      0.63673      .   S
    Zr244  O349      0.63673      .   S
    Zr123  O350      0.63749      .   S
    Zr252  O350      0.63749      .   S
    Zr127  O351      0.63677      .   S
    Zr248  O351      0.63677      .   S
    Zr127  O352      0.63744      .   S
    Zr256  O352      0.63744      .   S
    Zr121  O353      0.63676      .   S
    Zr242  O353      0.63676      .   S
    Zr121  O354      0.63741      .   S
    Zr250  O354      0.63741      .   S
    Zr119  O355      0.63662      .   S
    Zr216  O355      0.63662      .   S
    Zr119  O356      0.63764      .   S
    Zr222  O356      0.63764  1_545   S
    Zr113  O357      0.63662      .   S
    Zr210  O357      0.63662      .   S
    Zr113  O358      0.63754      .   S
    Zr220  O358      0.63754      .   S
    Zr117  O359      0.63666      .   S
    Zr214  O359      0.63666      .   S
    Zr117  O360      0.63754      .   S
    Zr224  O360      0.63754      .   S
    Zr115  O361      0.63572      .   S
    Zr212  O361      0.63572      .   S
    Zr115  O362      0.63760      .   S
    Zr218  O362      0.63760  1_545   S
    Zr87   O363      0.48786      .   S
    Zr232  O363      0.48786      .   S
    Zr81   O364      0.48786      .   S
    Zr226  O364      0.48786      .   S
    Zr85   O365      0.48789      .   S
    Zr230  O365      0.48789      .   S
    Zr83   O366      0.48789      .   S
    Zr228  O366      0.48789      .   S
    Zr71   O367      0.48785      .   S
    Zr196  O367      0.48785      .   S
    Zr65   O368      0.48788      .   S
    Zr198  O368      0.48788      .   S
    Zr69   O369      0.48786      .   S
    Zr194  O369      0.48786      .   S
    Zr67   O370      0.48789      .   S
    Zr200  O370      0.48789      .   S
    Zr15   O371      1.01329      .   S
    Zr200  O371      1.01329      .   S
    Zr11   O372      1.01304      .   S
    Zr196  O372      1.01304      .   S
    Zr13   O373      1.01307      .   S
    Zr198  O373      1.01307      .   S
    Zr9    O374      0.93201      .   S
    Zr96   O374      0.93201      .   S
    Zr232  O375      1.02320      .   S
    Zr29   O375      1.02320      .   S
    Zr226  O376      1.02306      .   S
    Zr27   O376      1.02306      .   S
    Zr230  O377      1.02318      .   S
    Zr31   O377      1.02318      .   S
    Zr228  O378      1.02337      .   S
    Zr25   O378      1.02337  1_545   S
    Zr194  O379      1.02252      .   S
    Zr21   O379      1.02252      .   S
    Zr140  O380      0.49583      .   S
    Zr41   O380      0.49583      .   S
    Zr140  O381      0.97912      .   S
    Zr27   O381      0.97912      .   S
    Zr142  O382      0.49557  1_545   S
    Zr47   O382      0.49557      .   S
    Zr142  O383      0.97910      .   S
    Zr29   O383      0.97910  1_565   S
    Zr144  O384      0.49581      .   S
    Zr45   O384      0.49581      .   S
    Zr144  O385      0.97960      .   S
    Zr31   O385      0.97960      .   S
    Zr138  O386      0.49587  1_545   S
    Zr43   O386      0.49587      .   S
    Zr138  O387      0.97962      .   S
    Zr25   O387      0.97962      .   S
    Zr176  O388      0.49566      .   S
    Zr63   O388      0.49566      .   S
    Zr176  O389      0.97957      .   S
    Zr23   O389      0.97957      .   S
    Zr170  O390      0.49569      .   S
    Zr57   O390      0.49569      .   S
    Zr170  O391      0.97956      .   S
    Zr17   O391      0.97956      .   S
    Zr172  O392      0.49564      .   S
    Zr59   O392      0.49564      .   S
    Zr172  O393      0.97971      .   S
    Zr19   O393      0.97971      .   S
    Zr174  O394      0.49563      .   S
    Zr61   O394      0.49563      .   S
    Zr174  O395      0.97972      .   S
    Zr21   O395      0.97972      .   S
    Zr27   O396      0.98047      .   S
    Zr202  O396      0.98047      .   S
    Zr29   O397      0.98056      .   S
    Zr208  O397      0.98056      .   S
    Zr31   O398      0.97999      .   S
    Zr206  O398      0.97999      .   S
    Zr25   O399      0.98008  1_545   S
    Zr204  O399      0.98008      .   S
    Zr23   O400      0.97939      .   S
    Zr236  O400      0.97939      .   S
    Zr17   O401      0.97946  1_455   S
    Zr238  O401      0.97946      .   S
    Zr19   O402      0.97935  1_455   S
    Zr240  O402      0.97935      .   S
    Zr21   O403      0.97911      .   S
    Zr234  O403      0.97911      .   S
    Zr93   O404      0.49565      .   S
    Zr238  O404      0.49565      .   S
    Zr91   O405      0.49563      .   S
    Zr236  O405      0.49563      .   S
    Zr95   O406      0.49566      .   S
    Zr240  O406      0.49566      .   S
    Zr89   O407      0.49578      .   S
    Zr234  O407      0.49578      .   S
    Zr77   O408      0.49578      .   S
    Zr208  O408      0.49578  1_565   S
    Zr75   O409      0.49565      .   S
    Zr202  O409      0.49565      .   S
    Zr79   O410      0.49577      .   S
    Zr206  O410      0.49577      .   S
    Zr73   O411      0.49581      .   S
    Zr204  O411      0.49581  1_565   S
    Zr130  O412      1.01292      .   S
    Zr1    O412      1.01292      .   S
    Zr130  O413      0.53446      .   S
    Zr37   O413      0.53446      .   S
    Zr164  O414      0.48839      .   S
    Zr51   O414      0.48839      .   S
    Zr136  O415      1.01291      .   S
    Zr7    O415      1.01291      .   S
    Zr136  O416      0.48796      .   S
    Zr35   O416      0.48796      .   S
    Zr166  O417      1.01266      .   S
    Zr5    O417      1.01266      .   S
    Zr166  O418      0.48787      .   S
    Zr53   O418      0.48787      .   S
    Zr134  O419      0.48794      .   S
    Zr33   O419      0.48794      .   S
    Zr132  O420      1.01265      .   S
    Zr3    O420      1.01265      .   S
    Zr132  O421      0.53436      .   S
    Zr39   O421      0.53436      .   S
    Zr162  O422      0.48783      .   S
    Zr49   O422      0.48783      .   S
    Zr168  O423      0.48784      .   S
    Zr55   O423      0.48784      .   S
    Zr160  O424      0.63768  1_565   S
    Zr101  O424      0.63768      .   S
    Zr154  O425      0.63754      .   S
    Zr99   O425      0.63754      .   S
    Zr156  O426      0.63767  1_565   S
    Zr97   O426      0.63767      .   S
    Zr158  O427      0.63758      .   S
    Zr103  O427      0.63758      .   S
    Zr192  O428      0.63763      .   S
    Zr111  O428      0.63763      .   S
    Zr186  O429      0.63768      .   S
    Zr105  O429      0.63768      .   S
    Zr190  O430      0.63769      .   S
    Zr109  O430      0.63769      .   S
    Zr188  O431      0.63770      .   S
    Zr107  O431      0.63770      .   S
    Zr148  O432      0.63666      .   S
    Zr99   O432      0.63666      .   S
    Zr150  O433      0.63666      .   S
    Zr101  O433      0.63666      .   S
    Zr146  O434      0.63662      .   S
    Zr97   O434      0.63662      .   S
    Zr152  O435      0.63663      .   S
    Zr103  O435      0.63663      .   S
    Zr184  O436      0.63656      .   S
    Zr111  O436      0.63656      .   S
    Zr178  O437      0.63656      .   S
    Zr105  O437      0.63656      .   S
    Zr180  O438      0.63654      .   S
    Zr107  O438      0.63654      .   S
    Zr182  O439      0.63655      .   S
    Zr109  O439      0.63655      .   S
    Zr129  O440      1.02326      .   S
    Zr16   O440      1.02326      .   S
    Zr130  O441      1.02381      .   S
    Zr17   O441      1.02381      .   S
    Zr131  O442      1.02436      .   S
    Zr18   O442      1.02436      .   S
    Zr132  O443      1.02430      .   S
    Zr19   O443      1.02430      .   S
    Zr133  O444      1.02445      .   S
    Zr20   O444      1.02445      .   S
    Zr134  O445      1.01284      .   S
    Zr5    O445      1.01284      .   S
    Zr134  O446      1.02422      .   S
    Zr21   O446      1.02422      .   S
    Zr135  O447      1.02342      .   S
    Zr22   O447      1.02342      .   S
    Zr136  O448      1.02377      .   S
    Zr23   O448      1.02377      .   S
    Zr137  O449      0.98156      .   S
    Zr0    O449      0.98156      .   S
    Zr138  O450      0.98173      .   S
    Zr1    O450      0.98173      .   S
    Zr139  O451      0.98216      .   S
    Zr2    O451      0.98216      .   S
    Zr140  O452      0.98205      .   S
    Zr3    O452      0.98205      .   S
    Zr141  O453      0.98215      .   S
    Zr4    O453      0.98215      .   S
    Zr142  O454      0.98179      .   S
    Zr5    O454      0.98179      .   S
    Zr143  O455      0.98154      .   S
    Zr6    O455      0.98154      .   S
    Zr144  O456      0.98176      .   S
    Zr7    O456      0.98176      .   S
    Zr145  O457      1.03275      .   S
    Zr0    O457      1.03275      .   S
    Zr145  O458      0.72428      .   S
    Zr128  O458      0.72428      .   S
    Zr146  O459      1.03302      .   S
    Zr1    O459      1.03302      .   S
    Zr147  O460      1.03263      .   S
    Zr2    O460      1.03263      .   S
    Zr148  O461      1.03292      .   S
    Zr3    O461      1.03292      .   S
    Zr149  O462      1.03299      .   S
    Zr4    O462      1.03299      .   S
    Zr150  O463      1.03361      .   S
    Zr5    O463      1.03361      .   S
    Zr151  O464      1.03278      .   S
    Zr6    O464      1.03278      .   S
    Zr152  O465      1.03296      .   S
    Zr7    O465      1.03296      .   S
    Zr153  O466      1.02508      .   S
    Zr26   O466      1.02508      .   S
    Zr154  O467      1.02575      .   S
    Zr27   O467      1.02575      .   S
    Zr155  O468      1.02618      .   S
    Zr24   O468      1.02618  1_545   S
    Zr155  O469      0.85940  1_565   S
    Zr128  O469      0.85940      .   S
    Zr156  O470      1.02518      .   S
    Zr25   O470      1.02518  1_545   S
    Zr157  O471      1.02532      .   S
    Zr30   O471      1.02532      .   S
    Zr158  O472      1.02609      .   S
    Zr31   O472      1.02609      .   S
    Zr159  O473      1.02520      .   S
    Zr28   O473      1.02520      .   S
    Zr160  O474      1.02512      .   S
    Zr29   O474      1.02512      .   S
    Zr161  O475      1.01342      .   S
    Zr0    O475      1.01342      .   S
    Zr162  O476      1.01313      .   S
    Zr1    O476      1.01313      .   S
    Zr162  O477      1.02359      .   S
    Zr25   O477      1.02359      .   S
    Zr163  O478      1.01284      .   S
    Zr2    O478      1.01284      .   S
    Zr163  O479      1.02371      .   S
    Zr26   O479      1.02371      .   S
    Zr164  O480      1.01305      .   S
    Zr3    O480      1.01305      .   S
    Zr164  O481      1.02374      .   S
    Zr27   O481      1.02374      .   S
    Zr165  O482      1.01275      .   S
    Zr4    O482      1.01275      .   S
    Zr165  O483      1.02375      .   S
    Zr28   O483      1.02375  1_565   S
    Zr166  O484      1.02373      .   S
    Zr29   O484      1.02373  1_565   S
    Zr167  O485      1.01343      .   S
    Zr6    O485      1.01343      .   S
    Zr168  O486      1.01313      .   S
    Zr7    O486      1.01313      .   S
    Zr168  O487      1.02363      .   S
    Zr31   O487      1.02363      .   S
    Zr169  O488      0.98255      .   S
    Zr0    O488      0.98255      .   S
    Zr170  O489      0.98259      .   S
    Zr1    O489      0.98259      .   S
    Zr171  O490      0.98272      .   S
    Zr2    O490      0.98272      .   S
    Zr172  O491      0.98271      .   S
    Zr3    O491      0.98271      .   S
    Zr173  O492      0.98274      .   S
    Zr4    O492      0.98274      .   S
    Zr174  O493      0.98215      .   S
    Zr5    O493      0.98215      .   S
    Zr175  O494      0.98255      .   S
    Zr6    O494      0.98255      .   S
    Zr176  O495      0.98272      .   S
    Zr7    O495      0.98272      .   S
    Zr177  O496      1.03353      .   S
    Zr0    O496      1.03353      .   S
    Zr178  O497      1.03347      .   S
    Zr1    O497      1.03347      .   S
    Zr179  O498      1.03316      .   S
    Zr2    O498      1.03316      .   S
    Zr180  O499      1.03361      .   S
    Zr3    O499      1.03361      .   S
    Zr181  O500      1.03357      .   S
    Zr4    O500      1.03357      .   S
    Zr182  O501      1.03393      .   S
    Zr5    O501      1.03393      .   S
    Zr183  O502      1.03364      .   S
    Zr6    O502      1.03364      .   S
    Zr184  O503      1.03339      .   S
    Zr7    O503      1.03339      .   S
    Zr185  O504      1.02561      .   S
    Zr16   O504      1.02561      .   S
    Zr186  O505      1.02490      .   S
    Zr17   O505      1.02490      .   S
    Zr187  O506      1.02480      .   S
    Zr18   O506      1.02480      .   S
    Zr188  O507      1.02479      .   S
    Zr19   O507      1.02479      .   S
    Zr189  O508      1.02481      .   S
    Zr20   O508      1.02481      .   S
    Zr190  O509      1.02478      .   S
    Zr21   O509      1.02478      .   S
    Zr191  O510      1.02550      .   S
    Zr22   O510      1.02550      .   S
    Zr192  O511      1.02469      .   S
    Zr23   O511      1.02469      .   S
    Zr193  O512      1.02230      .   S
    Zr20   O512      1.02230      .   S
    Zr194  O513      1.01338      .   S
    Zr9    O513      1.01338      .   S
    Zr195  O514      1.01309      .   S
    Zr10   O514      1.01309      .   S
    Zr195  O515      1.02407      .   S
    Zr22   O515      1.02407      .   S
    Zr196  O516      1.02304      .   S
    Zr23   O516      1.02304      .   S
    Zr197  O517      1.01280      .   S
    Zr12   O517      1.01280      .   S
    Zr197  O518      1.02364      .   S
    Zr16   O518      1.02364  1_455   S
    Zr198  O519      1.02302      .   S
    Zr17   O519      1.02302  1_455   S
    Zr199  O520      1.02237      .   S
    Zr18   O520      1.02237  1_455   S
    Zr200  O521      1.02247      .   S
    Zr19   O521      1.02247  1_455   S
    Zr201  O522      0.98051      .   S
    Zr26   O522      0.98051      .   S
    Zr202  O523      0.98167      .   S
    Zr9    O523      0.98167      .   S
    Zr203  O524      0.98223      .   S
    Zr10   O524      0.98223      .   S
    Zr204  O525      0.98206      .   S
    Zr11   O525      0.98206      .   S
    Zr205  O526      0.98221      .   S
    Zr12   O526      0.98221      .   S
    Zr206  O527      0.98205      .   S
    Zr13   O527      0.98205      .   S
    Zr207  O528      0.98165      .   S
    Zr14   O528      0.98165      .   S
    Zr208  O529      0.98184      .   S
    Zr15   O529      0.98184      .   S
    Zr209  O530      1.03276      .   S
    Zr8    O530      1.03276      .   S
    Zr210  O531      1.03286      .   S
    Zr9    O531      1.03286      .   S
    Zr211  O532      1.03299      .   S
    Zr10   O532      1.03299      .   S
    Zr212  O533      1.03686      .   S
    Zr11   O533      1.03686      .   S
    Zr213  O534      1.03304      .   S
    Zr12   O534      1.03304      .   S
    Zr214  O535      1.03275      .   S
    Zr13   O535      1.03275      .   S
    Zr215  O536      1.03274      .   S
    Zr14   O536      1.03274      .   S
    Zr216  O537      1.03259      .   S
    Zr15   O537      1.03259      .   S
    Zr217  O538      1.02443      .   S
    Zr24   O538      1.02443      .   S
    Zr218  O539      1.02531      .   S
    Zr25   O539      1.02531      .   S
    Zr219  O540      1.02548      .   S
    Zr26   O540      1.02548      .   S
    Zr220  O541      1.02480      .   S
    Zr27   O541      1.02480      .   S
    Zr221  O542      1.02545      .   S
    Zr28   O542      1.02545  1_565   S
    Zr222  O543      1.02539      .   S
    Zr29   O543      1.02539  1_565   S
    Zr223  O544      1.02530      .   S
    Zr30   O544      1.02530      .   S
    Zr224  O545      1.02445      .   S
    Zr31   O545      1.02445      .   S
    Zr225  O546      1.01351      .   S
    Zr8    O546      1.01351      .   S
    Zr226  O547      1.01336      .   S
    Zr9    O547      1.01336      .   S
    Zr227  O548      1.02374      .   S
    Zr24   O548      1.02374  1_545   S
    Zr228  O549      1.01309      .   S
    Zr11   O549      1.01309      .   S
    Zr229  O550      1.02342      .   S
    Zr30   O550      1.02342      .   S
    Zr230  O551      1.01308      .   S
    Zr13   O551      1.01308      .   S
    Zr231  O552      1.01353      .   S
    Zr14   O552      1.01353      .   S
    Zr232  O553      1.01345      .   S
    Zr15   O553      1.01345      .   S
    Zr233  O554      0.98253      .   S
    Zr8    O554      0.98253      .   S
    Zr234  O555      0.98234      .   S
    Zr9    O555      0.98234      .   S
    Zr235  O556      0.98216      .   S
    Zr10   O556      0.98216      .   S
    Zr236  O557      0.98268      .   S
    Zr11   O557      0.98268      .   S
    Zr237  O558      0.98213      .   S
    Zr12   O558      0.98213      .   S
    Zr238  O559      0.98265      .   S
    Zr13   O559      0.98265      .   S
    Zr239  O560      0.98256      .   S
    Zr14   O560      0.98256      .   S
    Zr240  O561      0.98284      .   S
    Zr15   O561      0.98284      .   S
    Zr241  O562      1.03268      .   S
    Zr8    O562      1.03268      .   S
    Zr242  O563      1.03269      .   S
    Zr9    O563      1.03269      .   S
    Zr243  O564      1.03268      .   S
    Zr10   O564      1.03268      .   S
    Zr244  O565      1.03290      .   S
    Zr11   O565      1.03290      .   S
    Zr245  O566      1.03280      .   S
    Zr12   O566      1.03280      .   S
    Zr246  O567      1.03285      .   S
    Zr13   O567      1.03285      .   S
    Zr247  O568      1.03272      .   S
    Zr14   O568      1.03272      .   S
    Zr248  O569      1.03249      .   S
    Zr15   O569      1.03249      .   S
    Zr249  O570      1.02691      .   S
    Zr20   O570      1.02691      .   S
    Zr250  O571      1.02689      .   S
    Zr21   O571      1.02689      .   S
    Zr251  O572      1.02609      .   S
    Zr22   O572      1.02609      .   S
    Zr252  O573      1.02658      .   S
    Zr23   O573      1.02658      .   S
    Zr253  O574      1.02596      .   S
    Zr16   O574      1.02596  1_455   S
    Zr254  O575      1.02671      .   S
    Zr17   O575      1.02671  1_455   S
    Zr255  O576      1.02692      .   S
    Zr18   O576      1.02692  1_455   S
    Zr256  O577      1.02688      .   S
    Zr19   O577      1.02688  1_455   S
    N578   O579      1.07476      .   S
    Zr98   O579      1.82369      .   S
    N578   O580      1.07484      .   S
    Zr113  O580      1.82372      .   S
    N578   O581      1.07523      .   S
    Zr104  O581      1.82394      .   S
    N578   O582      1.07518      .   S
    Zr123  O582      1.82426      .   S
    N583   O584      1.26931  1_565   S
    Zr120  O584      2.00745      .   S
    N583   O585      0.95350  1_554   S
    Zr107  O585      1.68328      .   S
    N583   O586      0.95372      .   S
    Zr114  O586      1.68344      .   S
    N583   O587      1.26874  1_554   S
    Zr97   O587      2.00667  1_545   S
    N588   O589      1.16204      .   S
    Zr121  O589      1.90706      .   S
    N588   O590      1.23579  1_545   S
    Zr115  O590      1.98471      .   S
    N588   O591      1.46852      .   S
    Zr145  O591      1.93885      .   S
    N588   O592      1.44584      .   S
    Zr155  O592      1.88755  1_565   S
    N588   O593      1.30264      .   S
    Zr128  O593      1.45976      .   S
    N588   O594      1.00633  1_545   S
    Zr106  O594      1.75170      .   S
    N595   O596      0.99706      .   S
    Zr101  O596      1.74053      .   S
    N595   O597      1.17464  1_545   S
    Zr111  O597      1.91989      .   S
    N595   O598      0.99728  1_556   S
    Zr124  O598      1.74070      .   S
    N595   O599      1.17440  1_546   S
    Zr118  O599      1.91972      .   S
    N600   O601      1.07514      .   S
    Zr125  O601      1.82422      .   S
    N600   O602      1.07498      .   S
    Zr100  O602      1.82368      .   S
    N600   O603      1.07522  1_545   S
    Zr110  O603      1.82456      .   S
    N600   O604      1.07481  1_545   S
    Zr119  O604      1.82371      .   S
    N605   O606      0.57169      .   S
    Zr109  O606      1.11270      .   S
    N605   O607      0.67788      .   S
    Zr103  O607      1.32021      .   S
    N608   O609      0.99724  1_556   S
    Zr122  O609      1.74074      .   S
    N608   O610      0.99714      .   S
    Zr99   O610      1.74060      .   S
    N608   O611      1.17434      .   S
    Zr105  O611      1.91968      .   S
    N608   O612      1.17426  1_556   S
    Zr112  O612      1.91960      .   S
    N613   O614      1.07475      .   S
    Zr117  O614      1.82377      .   S
    N613   O615      1.07510      .   S
    Zr127  O615      1.82411      .   S
    N613   O616      1.07495      .   S
    Zr108  O616      1.82352      .   S
    N613   O617      1.07471      .   S
    Zr102  O617      1.82369      .   S
    N619   O620      0.63097      .   S
    Zr126  O620      1.33830      .   S
    N619   O621      0.63082      .   S
    Zr116  O621      1.33805      .   S
    N624   O625      0.30935      .   S
    Zr223  O625      0.92804      .   S
