# CIF file generated by openbabel 2.4.90, see http://openbabel.sf.net
data_I
_chemical_name_common ''
_cell_length_a 13
_cell_length_b 18.343
_cell_length_c 18.751
_cell_angle_alpha 90.178
_cell_angle_beta 96.467
_cell_angle_gamma 90.123
_space_group_name_H-M_alt 'P 1'
_space_group_name_Hall 'P 1'
loop_
    _symmetry_equiv_pos_as_xyz
    x,y,z
loop_
    _atom_site_label
    _atom_site_type_symbol
    _atom_site_fract_x
    _atom_site_fract_y
    _atom_site_fract_z
    _atom_site_occupancy
    Zn0     Zn   0.62614   0.51256   0.28138   1.000
    Zn1     Zn   0.12437   0.01231   0.21910   1.000
    Zn2     Zn   0.62232   0.01240   0.21932   1.000
    Zn3     Zn   0.37325   0.48761   0.71927   1.000
    Zn4     Zn   0.87546   0.48755   0.72142   1.000
    Zn5     Zn   0.37335   0.98737   0.78093   1.000
    Zn6     Zn   0.87555   0.98767   0.78070   1.000
    Zn7     Zn   0.12458   0.51241   0.28080   1.000
