# CIF file generated by openbabel 2.4.90, see http://openbabel.sf.net
data_I
_chemical_name_common ''
_cell_length_a 15.295
_cell_length_b 19.779
_cell_length_c 15.02
_cell_angle_alpha 109.185
_cell_angle_beta 100.984
_cell_angle_gamma 90.011
_space_group_name_H-M_alt 'P 1'
_space_group_name_Hall 'P 1'
loop_
    _symmetry_equiv_pos_as_xyz
    x,y,z
loop_
    _atom_site_label
    _atom_site_type_symbol
    _atom_site_fract_x
    _atom_site_fract_y
    _atom_site_fract_z
    _atom_site_occupancy
    Cd0     Cd   0.00002   0.75000   0.50002   1.000
    Cd1     Cd   0.50001   0.25001   0.50002   1.000
    Cd2     Cd   0.50001   0.75000   0.50002   1.000
    Cd3     Cd   0.25002   0.00002   0.50002   1.000
    Cd4     Cd   0.25002   0.50001   0.50002   1.000
    Cd5     Cd   0.75001   0.00002   0.50002   1.000
    Cd6     Cd   0.75001   0.50001   0.50002   1.000
    Cd7     Cd   0.00002   0.25001   0.50002   1.000
    S8      S    0.58357   0.94821   0.38650   1.000
    S9      S    0.33348   0.24521   0.38674   1.000
    S10     S    0.33348   0.74520   0.38674   1.000
    S11     S    0.83347   0.24521   0.38674   1.000
    S12     S    0.83347   0.74520   0.38674   1.000
    S13     S    0.41647   0.05180   0.61346   1.000
    S14     S    0.41646   0.55179   0.61346   1.000
    S15     S    0.91646   0.05180   0.61346   1.000
    S16     S    0.91645   0.55179   0.61346   1.000
    S17     S    0.16656   0.25481   0.61329   1.000
    S18     S    0.16656   0.75480   0.61329   1.000
    S19     S    0.66655   0.25481   0.61329   1.000
    S20     S    0.66655   0.75480   0.61329   1.000
    S21     S    0.08357   0.44822   0.38657   1.000
    S22     S    0.08357   0.94821   0.38657   1.000
    S23     S    0.58357   0.44822   0.38657   1.000
    Ts24    Ts   0.98298   0.77196   0.54844   1.000
    Ts25    Ts   0.98841   0.71308   0.50432   1.000
    Ts26    Ts   0.01706   0.72804   0.45160   1.000
    Ts27    Ts   0.01163   0.78692   0.49572   1.000
    Ts28    Ts   0.48298   0.27197   0.54844   1.000
    Ts29    Ts   0.48841   0.21309   0.50432   1.000
    Ts30    Ts   0.51705   0.22806   0.45160   1.000
    Ts31    Ts   0.51162   0.28693   0.49572   1.000
    Ts32    Ts   0.48297   0.77196   0.54844   1.000
    Ts33    Ts   0.48841   0.71308   0.50432   1.000
    Ts34    Ts   0.51705   0.72804   0.45160   1.000
    Ts35    Ts   0.51162   0.78692   0.49572   1.000
    Ts36    Ts   0.26160   0.96095   0.49579   1.000
    Ts37    Ts   0.26708   0.99774   0.45155   1.000
    Ts38    Ts   0.23845   0.03908   0.50425   1.000
    Ts39    Ts   0.23297   0.00229   0.54847   1.000
    Ts40    Ts   0.26159   0.46094   0.49579   1.000
    Ts41    Ts   0.26707   0.49774   0.45155   1.000
    Ts42    Ts   0.23844   0.53907   0.50425   1.000
    Ts43    Ts   0.23296   0.50228   0.54847   1.000
    Ts44    Ts   0.76159   0.96095   0.49579   1.000
    Ts45    Ts   0.76707   0.99774   0.45157   1.000
    Ts46    Ts   0.73844   0.03908   0.50425   1.000
    Ts47    Ts   0.73296   0.00229   0.54847   1.000
    Ts48    Ts   0.76159   0.46094   0.49579   1.000
    Ts49    Ts   0.76707   0.49774   0.45155   1.000
    Ts50    Ts   0.73843   0.53907   0.50425   1.000
    Ts51    Ts   0.73295   0.50228   0.54847   1.000
    Ts52    Ts   0.98298   0.27197   0.54844   1.000
    Ts53    Ts   0.98841   0.21309   0.50432   1.000
    Ts54    Ts   0.01706   0.22806   0.45160   1.000
    Ts55    Ts   0.01163   0.28693   0.49572   1.000
    Ts56    Ts   0.57424   0.93135   0.40606   1.000
    Ts57    Ts   0.32415   0.27182   0.40628   1.000
    Ts58    Ts   0.32415   0.77181   0.40628   1.000
    Ts59    Ts   0.82414   0.27182   0.40626   1.000
    Ts60    Ts   0.82414   0.77181   0.40628   1.000
    Ts61    Ts   0.42580   0.06867   0.59392   1.000
    Ts62    Ts   0.42579   0.56865   0.59392   1.000
    Ts63    Ts   0.92579   0.06867   0.59392   1.000
    Ts64    Ts   0.92578   0.56865   0.59392   1.000
    Ts65    Ts   0.17589   0.22820   0.59375   1.000
    Ts66    Ts   0.17589   0.72819   0.59375   1.000
    Ts67    Ts   0.67588   0.22820   0.59375   1.000
    Ts68    Ts   0.67588   0.72819   0.59375   1.000
    Ts69    Ts   0.07424   0.43136   0.40611   1.000
    Ts70    Ts   0.07424   0.93135   0.40611   1.000
    Ts71    Ts   0.57424   0.43136   0.40611   1.000
loop_
    _geom_bond_atom_site_label_1
    _geom_bond_atom_site_label_2
    _geom_bond_distance
    _geom_bond_site_symmetry_2
    _ccdc_geom_bond_type
    S8     Cd5       2.76318  1_565   S
    S21    Cd4       2.76270      .   S
    S23    Cd6       2.76269      .   S
    S22    Cd3       2.76283  1_565   S
    S12    Cd0       2.76320  1_655   S
    S9     Cd1       2.76300      .   S
    S10    Cd2       2.76300      .   S
    S11    Cd7       2.76321  1_655   S
    Cd7    S17       2.76296      .   S
    Cd0    S18       2.76295      .   S
    Cd1    S19       2.76295      .   S
    Cd2    S20       2.76294      .   S
    Cd6    S16       2.76265      .   S
    Cd5    S15       2.76264      .   S
    Cd4    S14       2.76264      .   S
    Cd3    S13       2.76265      .   S
    Cd0    Ts24      0.80639  1_455   S
    Cd0    Ts25      0.77734  1_455   S
    Cd0    Ts26      0.80635      .   S
    Cd0    Ts27      0.77731      .   S
    Cd1    Ts28      0.80634      .   S
    Cd1    Ts29      0.77731      .   S
    Cd1    Ts30      0.80634      .   S
    Cd1    Ts31      0.77731      .   S
    Cd2    Ts32      0.80635      .   S
    Cd2    Ts33      0.77731      .   S
    Cd2    Ts34      0.80634      .   S
    Cd2    Ts35      0.77732      .   S
    Cd3    Ts36      0.77755  1_545   S
    Cd3    Ts37      0.80682  1_545   S
    Cd3    Ts38      0.77740      .   S
    Cd3    Ts39      0.80650      .   S
    Cd4    Ts40      0.77740      .   S
    Cd4    Ts41      0.80687      .   S
    Cd4    Ts42      0.77740      .   S
    Cd4    Ts43      0.80650      .   S
    Cd5    Ts44      0.77755  1_545   S
    Cd5    Ts45      0.80648  1_545   S
    Cd5    Ts46      0.77739      .   S
    Cd5    Ts47      0.80650      .   S
    Cd6    Ts48      0.77740      .   S
    Cd6    Ts49      0.80688      .   S
    Cd6    Ts50      0.77740      .   S
    Cd6    Ts51      0.80650      .   S
    Cd7    Ts52      0.80639  1_455   S
    Cd7    Ts53      0.77733  1_455   S
    Cd7    Ts54      0.80634      .   S
    Cd7    Ts55      0.77731      .   S
    S8     Ts56      0.54612      .   S
    S9     Ts57      0.54585      .   S
    S10    Ts58      0.54585      .   S
    S11    Ts59      0.54576      .   S
    S12    Ts60      0.54585      .   S
    S13    Ts61      0.54584      .   S
    S14    Ts62      0.54584      .   S
    S15    Ts63      0.54585      .   S
    S16    Ts64      0.54585      .   S
    S17    Ts65      0.54586      .   S
    S18    Ts66      0.54586      .   S
    S19    Ts67      0.54586      .   S
    S20    Ts68      0.54586      .   S
    S21    Ts69      0.54585      .   S
    S22    Ts70      0.54584      .   S
    S23    Ts71      0.54584      .   S
