# CIF file generated by openbabel 2.4.90, see http://openbabel.sf.net
data_I
_chemical_name_common ''
_cell_length_a 15.295
_cell_length_b 19.779
_cell_length_c 15.02
_cell_angle_alpha 109.185
_cell_angle_beta 100.984
_cell_angle_gamma 90.011
_space_group_name_H-M_alt 'P 1'
_space_group_name_Hall 'P 1'
loop_
    _symmetry_equiv_pos_as_xyz
    x,y,z
loop_
    _atom_site_label
    _atom_site_type_symbol
    _atom_site_fract_x
    _atom_site_fract_y
    _atom_site_fract_z
    _atom_site_occupancy
    C0      C    0.00002   0.25001   0.50002   1.000
    C1      C    0.00002   0.75000   0.50002   1.000
    C2      C    0.50001   0.25001   0.50002   1.000
    C3      C    0.50001   0.75000   0.50002   1.000
    C4      C    0.25002   0.00002   0.50002   1.000
    C5      C    0.25002   0.50001   0.50002   1.000
    C6      C    0.75001   0.00002   0.50002   1.000
    C7      C    0.75001   0.50001   0.50002   1.000
    C8      C    0.41390   0.22213   0.66700   1.000
    C9      C    0.41390   0.72211   0.66739   1.000
    C10     C    0.91389   0.22212   0.66739   1.000
    C11     C    0.91389   0.72211   0.66739   1.000
    C12     C    0.37532   0.28360   0.82584   1.000
    C13     C    0.37531   0.78359   0.82584   1.000
    C14     C    0.87531   0.28360   0.82584   1.000
    C15     C    0.87530   0.78358   0.82580   1.000
    C16     C    0.44015   0.48584   0.79263   1.000
    C17     C    0.44015   0.98582   0.79260   1.000
    C18     C    0.94014   0.48583   0.79263   1.000
    C19     C    0.94014   0.98582   0.79263   1.000
    C20     C    0.47664   0.41482   0.63354   1.000
    C21     C    0.47664   0.91480   0.63350   1.000
    C22     C    0.97663   0.41482   0.63354   1.000
    C23     C    0.97663   0.91480   0.63354   1.000
    C24     C    0.33590   0.38835   0.33259   1.000
    C25     C    0.33590   0.88834   0.33259   1.000
    C26     C    0.83589   0.38835   0.33259   1.000
    C27     C    0.83589   0.88834   0.33259   1.000
    C28     C    0.37440   0.37057   0.17407   1.000
    C29     C    0.37440   0.87056   0.17407   1.000
    C30     C    0.87440   0.37057   0.17407   1.000
    C31     C    0.87440   0.87056   0.17407   1.000
    C32     C    0.31008   0.08945   0.20716   1.000
    C33     C    0.31008   0.58944   0.20710   1.000
    C34     C    0.81008   0.08945   0.20716   1.000
    C35     C    0.81007   0.58944   0.20710   1.000
    C36     C    0.27368   0.09802   0.36635   1.000
    C37     C    0.27367   0.59801   0.36635   1.000
    C38     C    0.77367   0.09802   0.36635   1.000
    C39     C    0.77367   0.59801   0.36635   1.000
    C40     C    0.08613   0.27790   0.33264   1.000
    C41     C    0.08613   0.77789   0.33264   1.000
    C42     C    0.58613   0.27790   0.33264   1.000
    C43     C    0.58612   0.77789   0.33264   1.000
    C44     C    0.12473   0.21643   0.17420   1.000
    C45     C    0.12473   0.71642   0.17420   1.000
    C46     C    0.62472   0.21643   0.17420   1.000
    C47     C    0.62471   0.71642   0.17420   1.000
    C48     C    0.05990   0.01419   0.20741   1.000
    C49     C    0.05989   0.51418   0.20741   1.000
    C50     C    0.55989   0.01419   0.20741   1.000
    C51     C    0.55989   0.51418   0.20741   1.000
    C52     C    0.02340   0.08521   0.36600   1.000
    C53     C    0.02340   0.58520   0.36649   1.000
    C54     C    0.52339   0.08521   0.36600   1.000
    C55     C    0.52339   0.58520   0.36600   1.000
    C56     C    0.16414   0.11167   0.66740   1.000
    C57     C    0.16414   0.61166   0.66740   1.000
    C58     C    0.66413   0.11167   0.66745   1.000
    C59     C    0.66413   0.61166   0.66740   1.000
    C60     C    0.12564   0.12945   0.82597   1.000
    C61     C    0.12563   0.62944   0.82597   1.000
    C62     C    0.62563   0.12945   0.82597   1.000
    C63     C    0.62563   0.62944   0.82597   1.000
    C64     C    0.18996   0.41057   0.79280   1.000
    C65     C    0.18996   0.91056   0.79280   1.000
    C66     C    0.68996   0.41057   0.79288   1.000
    C67     C    0.68995   0.91056   0.79288   1.000
    C68     C    0.22637   0.40200   0.63369   1.000
    C69     C    0.22636   0.90199   0.63369   1.000
    C70     C    0.72636   0.40200   0.63369   1.000
    C71     C    0.72635   0.90199   0.63369   1.000
    C72     C    0.41985   0.28046   0.69790   1.000
    C73     C    0.41985   0.78045   0.69795   1.000
    C74     C    0.91984   0.28046   0.69795   1.000
    C75     C    0.91984   0.78045   0.69795   1.000
    C76     C    0.39866   0.31544   0.78690   1.000
    C77     C    0.39865   0.81543   0.78690   1.000
    C78     C    0.89864   0.31544   0.78690   1.000
    C79     C    0.89864   0.81543   0.78690   1.000
    C80     C    0.40708   0.39070   0.82440   1.000
    C81     C    0.40708   0.89068   0.82440   1.000
    C82     C    0.90707   0.39070   0.82442   1.000
    C83     C    0.90707   0.89068   0.82440   1.000
    C84     C    0.43411   0.42746   0.76750   1.000
    C85     C    0.43411   0.92744   0.76750   1.000
    C86     C    0.93410   0.42745   0.76751   1.000
    C87     C    0.93410   0.92744   0.76751   1.000
    C88     C    0.45443   0.38829   0.67931   1.000
    C89     C    0.45443   0.88827   0.67931   1.000
    C90     C    0.95442   0.38828   0.67931   1.000
    C91     C    0.95442   0.88827   0.67931   1.000
    C92     C    0.38925   0.42935   0.91976   1.000
    C93     C    0.38925   0.92934   0.91976   1.000
    C94     C    0.88924   0.42935   0.91976   1.000
    C95     C    0.88924   0.92934   0.91976   1.000
    C96     C    0.30549   0.32504   0.44537   1.000
    C97     C    0.30549   0.82502   0.44537   1.000
    C98     C    0.80548   0.32504   0.44530   1.000
    C99     C    0.80548   0.82502   0.44537   1.000
    C100    C    0.33006   0.43141   0.30200   1.000
    C101    C    0.33005   0.93140   0.30200   1.000
    C102    C    0.83004   0.43141   0.30200   1.000
    C103    C    0.83005   0.93140   0.30200   1.000
    C104    C    0.35120   0.42190   0.21300   1.000
    C105    C    0.35120   0.92189   0.21300   1.000
    C106    C    0.85119   0.42190   0.21300   1.000
    C107    C    0.85119   0.92189   0.21300   1.000
    C108    C    0.34291   0.47840   0.17544   1.000
    C109    C    0.34291   0.97838   0.17540   1.000
    C110    C    0.84290   0.47840   0.17543   1.000
    C111    C    0.84290   0.97838   0.17544   1.000
    C112    C    0.31603   0.04364   0.23233   1.000
    C113    C    0.31602   0.54362   0.23233   1.000
    C114    C    0.81602   0.04364   0.23230   1.000
    C115    C    0.81602   0.54363   0.23233   1.000
    C116    C    0.29577   0.04859   0.32059   1.000
    C117    C    0.29577   0.54858   0.32059   1.000
    C118    C    0.79576   0.04859   0.32059   1.000
    C119    C    0.79575   0.54858   0.32059   1.000
    C120    C    0.36075   0.46941   0.08009   1.000
    C121    C    0.36075   0.96940   0.08009   1.000
    C122    C    0.86074   0.46941   0.08009   1.000
    C123    C    0.86074   0.96940   0.08009   1.000
    C124    C    0.44445   0.10239   0.55485   1.000
    C125    C    0.44445   0.60237   0.55485   1.000
    C126    C    0.94445   0.10239   0.55485   1.000
    C127    C    0.94444   0.60237   0.55485   1.000
    C128    C    0.08019   0.21956   0.30208   1.000
    C129    C    0.08019   0.71955   0.30208   1.000
    C130    C    0.58018   0.21956   0.30208   1.000
    C131    C    0.58018   0.71955   0.30208   1.000
    C132    C    0.10139   0.18458   0.21310   1.000
    C133    C    0.10139   0.68457   0.21314   1.000
    C134    C    0.60138   0.18458   0.21313   1.000
    C135    C    0.60137   0.68457   0.21313   1.000
    C136    C    0.09297   0.10933   0.17562   1.000
    C137    C    0.09296   0.60932   0.17560   1.000
    C138    C    0.59296   0.10933   0.17562   1.000
    C139    C    0.59296   0.60932   0.17562   1.000
    C140    C    0.06593   0.07257   0.23250   1.000
    C141    C    0.06593   0.57256   0.23250   1.000
    C142    C    0.56593   0.07257   0.23250   1.000
    C143    C    0.56592   0.57256   0.23252   1.000
    C144    C    0.04562   0.11174   0.32073   1.000
    C145    C    0.04561   0.61173   0.32073   1.000
    C146    C    0.54561   0.11174   0.32073   1.000
    C147    C    0.54561   0.61173   0.32073   1.000
    C148    C    0.11079   0.07067   0.08028   1.000
    C149    C    0.11079   0.57066   0.08028   1.000
    C150    C    0.61079   0.07067   0.08028   1.000
    C151    C    0.61078   0.57066   0.08028   1.000
    C152    C    0.19455   0.17499   0.55466   1.000
    C153    C    0.19455   0.67497   0.55466   1.000
    C154    C    0.69454   0.17499   0.55466   1.000
    C155    C    0.69454   0.67497   0.55466   1.000
    C156    C    0.16999   0.06861   0.69804   1.000
    C157    C    0.16998   0.56860   0.69804   1.000
    C158    C    0.66999   0.06861   0.69804   1.000
    C159    C    0.66998   0.56860   0.69804   1.000
    C160    C    0.14884   0.07812   0.78703   1.000
    C161    C    0.14884   0.57811   0.78703   1.000
    C162    C    0.64883   0.07812   0.78703   1.000
    C163    C    0.64883   0.57811   0.78703   1.000
    C164    C    0.15715   0.02163   0.82461   1.000
    C165    C    0.15714   0.52162   0.82461   1.000
    C166    C    0.65714   0.02163   0.82461   1.000
    C167    C    0.65713   0.52162   0.82461   1.000
    C168    C    0.18401   0.45639   0.76771   1.000
    C169    C    0.18401   0.95637   0.76771   1.000
    C170    C    0.68400   0.45639   0.76771   1.000
    C171    C    0.68400   0.95637   0.76771   1.000
    C172    C    0.20428   0.45143   0.67945   1.000
    C173    C    0.20428   0.95142   0.67945   1.000
    C174    C    0.70427   0.45143   0.67945   1.000
    C175    C    0.70427   0.95142   0.67945   1.000
    C176    C    0.13930   0.03062   0.91995   1.000
    C177    C    0.13929   0.53060   0.91995   1.000
    C178    C    0.63929   0.03062   0.91995   1.000
    C179    C    0.63929   0.53060   0.91995   1.000
    C180    C    0.05558   0.39764   0.44518   1.000
    C181    C    0.05558   0.89762   0.44518   1.000
    C182    C    0.55558   0.39764   0.44518   1.000
    C183    C    0.55558   0.89762   0.44518   1.000
    C184    C    0.33348   0.24521   0.38674   1.000
    C185    C    0.33348   0.74520   0.38674   1.000
    C186    C    0.83347   0.24521   0.38674   1.000
    C187    C    0.83347   0.74520   0.38674   1.000
    C188    C    0.41647   0.05180   0.61346   1.000
    C189    C    0.41646   0.55179   0.61346   1.000
    C190    C    0.91646   0.05180   0.61346   1.000
    C191    C    0.91645   0.55179   0.61346   1.000
    C192    C    0.16656   0.25481   0.61329   1.000
    C193    C    0.16656   0.75480   0.61329   1.000
    C194    C    0.66655   0.25481   0.61329   1.000
    C195    C    0.66655   0.75480   0.61329   1.000
    C196    C    0.08357   0.44822   0.38657   1.000
    C197    C    0.08357   0.94821   0.38657   1.000
    C198    C    0.58357   0.44822   0.38657   1.000
    C199    C    0.58357   0.94821   0.38650   1.000
    C200    C    0.37491   0.38582   0.99991   1.000
    C201    C    0.37490   0.88581   0.99991   1.000
    C202    C    0.87488   0.38582   0.99990   1.000
    C203    C    0.87489   0.88581   0.99991   1.000
    C204    C    0.12515   0.11421   0.00012   1.000
    C205    C    0.12514   0.61420   0.00012   1.000
    C206    C    0.62514   0.11421   0.00012   1.000
    C207    C    0.62513   0.61420   0.00012   1.000
    C208    C    0.44890   0.31588   0.64529   1.000
    C209    C    0.44889   0.81587   0.64529   1.000
    C210    C    0.94889   0.31588   0.64529   1.000
    C211    C    0.94888   0.81587   0.64529   1.000
    C212    C    0.38334   0.99966   0.95462   1.000
    C213    C    0.38334   0.49965   0.95462   1.000
    C214    C    0.88334   0.99966   0.95462   1.000
    C215    C    0.88334   0.49965   0.95462   1.000
    C216    C    0.28475   0.38282   0.48732   1.000
    C217    C    0.28474   0.88281   0.48732   1.000
    C218    C    0.78474   0.38282   0.48732   1.000
    C219    C    0.78473   0.88281   0.48732   1.000
    C220    C    0.30118   0.49320   0.35460   1.000
    C221    C    0.30118   0.99318   0.35460   1.000
    C222    C    0.80118   0.49320   0.35460   1.000
    C223    C    0.80117   0.99318   0.35467   1.000
    C224    C    0.36685   0.02230   0.04525   1.000
    C225    C    0.36684   0.52229   0.04525   1.000
    C226    C    0.86684   0.02230   0.04525   1.000
    C227    C    0.86685   0.52229   0.04525   1.000
    C228    C    0.46520   0.13926   0.51293   1.000
    C229    C    0.46520   0.63925   0.51293   1.000
    C230    C    0.96520   0.13926   0.51293   1.000
    C231    C    0.96519   0.63924   0.51293   1.000
    C232    C    0.05114   0.18414   0.35475   1.000
    C233    C    0.05114   0.68413   0.35475   1.000
    C234    C    0.55113   0.18414   0.35475   1.000
    C235    C    0.55113   0.68413   0.35475   1.000
    C236    C    0.11670   0.50036   0.04542   1.000
    C237    C    0.11670   0.00000   0.04542   1.000
    C238    C    0.61670   0.50036   0.04543   1.000
    C239    C    0.61670   0.00000   0.04543   1.000
    C240    C    0.21529   0.11720   0.51272   1.000
    C241    C    0.21529   0.61719   0.51272   1.000
    C242    C    0.71529   0.11720   0.51272   1.000
    C243    C    0.71528   0.61719   0.51272   1.000
    C244    C    0.19886   0.00683   0.64536   1.000
    C245    C    0.19885   0.50682   0.64536   1.000
    C246    C    0.69885   0.00683   0.64536   1.000
    C247    C    0.69884   0.50682   0.64536   1.000
    C248    C    0.13319   0.47772   0.95479   1.000
    C249    C    0.13319   0.97771   0.95479   1.000
    C250    C    0.63319   0.47772   0.95480   1.000
    C251    C    0.63319   0.97771   0.95479   1.000
    C252    C    0.03484   0.36077   0.48711   1.000
    C253    C    0.03483   0.86075   0.48711   1.000
    C254    C    0.53483   0.36077   0.48711   1.000
    C255    C    0.53483   0.86075   0.48711   1.000
    O256    O    0.11797   0.09244   0.04020   1.000
    O257    O    0.13222   0.07241   0.96004   1.000
    O258    O    0.11797   0.59243   0.04020   1.000
    O259    O    0.13222   0.57240   0.96004   1.000
    O260    O    0.61796   0.09244   0.04020   1.000
    O261    O    0.63221   0.07241   0.96004   1.000
    O262    O    0.61795   0.59243   0.04020   1.000
    O263    O    0.63221   0.57240   0.96004   1.000
    O264    O    0.36380   0.99585   0.06267   1.000
    O265    O    0.37510   0.01098   0.99994   1.000
    O266    O    0.36380   0.49585   0.06267   1.000
    O267    O    0.37509   0.51097   0.99994   1.000
    O268    O    0.86379   0.99585   0.06267   1.000
    O269    O    0.87509   0.01098   0.99994   1.000
    O270    O    0.86379   0.49585   0.06267   1.000
    O271    O    0.87509   0.51097   0.99994   1.000
    O272    O    0.11375   0.03534   0.06285   1.000
    O273    O    0.12495   0.98885   0.00011   1.000
    O274    O    0.11375   0.53551   0.06285   1.000
    O275    O    0.12495   0.48904   0.00011   1.000
    O276    O    0.61374   0.03534   0.06286   1.000
    O277    O    0.62494   0.98885   0.00011   1.000
    O278    O    0.61374   0.53551   0.06286   1.000
    O279    O    0.62495   0.48904   0.00012   1.000
    O280    O    0.35183   0.47390   0.12777   1.000
    O281    O    0.36783   0.42761   0.04000   1.000
    O282    O    0.35183   0.97389   0.12775   1.000
    O283    O    0.36783   0.92760   0.04000   1.000
    O284    O    0.85182   0.47390   0.12776   1.000
    O285    O    0.86781   0.42761   0.04000   1.000
    O286    O    0.85182   0.97389   0.12777   1.000
    O287    O    0.86782   0.92760   0.04000   1.000
    O288    O    0.60187   0.58999   0.12795   1.000
    O289    O    0.10188   0.09000   0.12795   1.000
    O290    O    0.10188   0.58999   0.12794   1.000
    O291    O    0.60187   0.09000   0.12795   1.000
    O292    O    0.86279   0.89622   0.19354   1.000
    O293    O    0.36280   0.39623   0.19354   1.000
    O294    O    0.36280   0.89622   0.19354   1.000
    O295    O    0.86279   0.39623   0.19354   1.000
    O296    O    0.11306   0.70049   0.19367   1.000
    O297    O    0.61305   0.20051   0.19367   1.000
    O298    O    0.11306   0.20051   0.19365   1.000
    O299    O    0.61304   0.70049   0.19367   1.000
    O300    O    0.34705   0.95014   0.19420   1.000
    O301    O    0.32947   0.01101   0.20387   1.000
    O302    O    0.84704   0.45015   0.19422   1.000
    O303    O    0.82946   0.51101   0.20388   1.000
    O304    O    0.34705   0.45015   0.19422   1.000
    O305    O    0.32947   0.51101   0.20389   1.000
    O306    O    0.84704   0.95014   0.19422   1.000
    O307    O    0.82946   0.01101   0.20387   1.000
    O308    O    0.09718   0.64694   0.19437   1.000
    O309    O    0.07945   0.59094   0.20405   1.000
    O310    O    0.09718   0.14696   0.19436   1.000
    O311    O    0.07945   0.09095   0.20406   1.000
    O312    O    0.59717   0.14696   0.19438   1.000
    O313    O    0.57944   0.09095   0.20406   1.000
    O314    O    0.59716   0.64694   0.19438   1.000
    O315    O    0.57944   0.59094   0.20407   1.000
    O316    O    0.31305   0.56653   0.21972   1.000
    O317    O    0.81305   0.56653   0.21972   1.000
    O318    O    0.81305   0.06654   0.21973   1.000
    O319    O    0.31306   0.06654   0.21975   1.000
    O320    O    0.56291   0.54337   0.21997   1.000
    O321    O    0.56291   0.04338   0.21996   1.000
    O322    O    0.06292   0.04338   0.21996   1.000
    O323    O    0.06291   0.54337   0.21996   1.000
    O324    O    0.34063   0.42666   0.25750   1.000
    O325    O    0.34063   0.92664   0.25750   1.000
    O326    O    0.84062   0.42666   0.25750   1.000
    O327    O    0.84062   0.92664   0.25750   1.000
    O328    O    0.09079   0.20207   0.25759   1.000
    O329    O    0.59078   0.20207   0.25761   1.000
    O330    O    0.59078   0.70206   0.25761   1.000
    O331    O    0.09079   0.70206   0.25761   1.000
    O332    O    0.80589   0.04612   0.27645   1.000
    O333    O    0.80589   0.54610   0.27646   1.000
    O334    O    0.30589   0.54610   0.27646   1.000
    O335    O    0.30590   0.04612   0.27646   1.000
    O336    O    0.05578   0.09216   0.27662   1.000
    O337    O    0.05577   0.59214   0.27662   1.000
    O338    O    0.55577   0.09216   0.27662   1.000
    O339    O    0.55577   0.59214   0.27663   1.000
    O340    O    0.83297   0.90987   0.31730   1.000
    O341    O    0.81561   0.96229   0.32834   1.000
    O342    O    0.83297   0.40988   0.31730   1.000
    O343    O    0.81561   0.46230   0.32830   1.000
    O344    O    0.33298   0.40988   0.31730   1.000
    O345    O    0.31562   0.46230   0.32830   1.000
    O346    O    0.33298   0.90987   0.31730   1.000
    O347    O    0.31562   0.96229   0.32830   1.000
    O348    O    0.08316   0.74872   0.31736   1.000
    O349    O    0.06566   0.70184   0.32842   1.000
    O350    O    0.08316   0.24873   0.31736   1.000
    O351    O    0.06567   0.20185   0.32842   1.000
    O352    O    0.58315   0.74872   0.31736   1.000
    O353    O    0.56566   0.70184   0.32842   1.000
    O354    O    0.58315   0.24873   0.31736   1.000
    O355    O    0.56566   0.20185   0.32842   1.000
    O356    O    0.79847   0.52089   0.33760   1.000
    O357    O    0.78471   0.57330   0.34347   1.000
    O358    O    0.29848   0.02089   0.33760   1.000
    O359    O    0.28472   0.07331   0.34347   1.000
    O360    O    0.79847   0.02089   0.33763   1.000
    O361    O    0.78472   0.07331   0.34347   1.000
    O362    O    0.29847   0.52089   0.33760   1.000
    O363    O    0.28472   0.57330   0.34347   1.000
    O364    O    0.54837   0.64793   0.33774   1.000
    O365    O    0.53450   0.59846   0.34337   1.000
    O366    O    0.54837   0.14794   0.33774   1.000
    O367    O    0.53450   0.09847   0.34337   1.000
    O368    O    0.04838   0.64793   0.33774   1.000
    O369    O    0.03450   0.59846   0.34361   1.000
    O370    O    0.04838   0.14794   0.33774   1.000
    O371    O    0.03451   0.09847   0.34337   1.000
    O372    O    0.77559   0.49660   0.42731   1.000
    O373    O    0.27560   0.99660   0.42731   1.000
    O374    O    0.27560   0.49660   0.42731   1.000
    O375    O    0.77559   0.99660   0.42735   1.000
    O376    O    0.52557   0.71707   0.42739   1.000
    O377    O    0.52557   0.21708   0.42739   1.000
    O378    O    0.02558   0.71707   0.42739   1.000
    O379    O    0.02558   0.21708   0.42739   1.000
    O380    O    0.56957   0.92292   0.41584   1.000
    O381    O    0.66679   0.97411   0.44326   1.000
    O382    O    0.06958   0.42293   0.41588   1.000
    O383    O    0.16680   0.47411   0.44330   1.000
    O384    O    0.56957   0.42293   0.41588   1.000
    O385    O    0.66679   0.47411   0.44330   1.000
    O386    O    0.06958   0.92291   0.41588   1.000
    O387    O    0.16680   0.97411   0.44330   1.000
    O388    O    0.81948   0.78511   0.41606   1.000
    O389    O    0.91675   0.74760   0.44338   1.000
    O390    O    0.31949   0.28512   0.41606   1.000
    O391    O    0.41675   0.24761   0.44338   1.000
    O392    O    0.31948   0.78511   0.41606   1.000
    O393    O    0.41675   0.74760   0.44338   1.000
    O394    O    0.81948   0.28512   0.41602   1.000
    O395    O    0.91675   0.24761   0.44338   1.000
    O396    O    0.04521   0.37920   0.46615   1.000
    O397    O    0.04521   0.87919   0.46615   1.000
    O398    O    0.54520   0.37920   0.46615   1.000
    O399    O    0.54520   0.87919   0.46615   1.000
    O400    O    0.79511   0.35393   0.46631   1.000
    O401    O    0.79511   0.85392   0.46635   1.000
    O402    O    0.29512   0.85392   0.46635   1.000
    O403    O    0.29512   0.35393   0.46635   1.000
    O404    O    0.51742   0.80538   0.49357   1.000
    O405    O    0.01743   0.30539   0.49357   1.000
    O406    O    0.01743   0.80538   0.49357   1.000
    O407    O    0.51742   0.30539   0.49357   1.000
    O408    O    0.26738   0.44141   0.49367   1.000
    O409    O    0.26738   0.94141   0.49367   1.000
    O410    O    0.76737   0.44141   0.49367   1.000
    O411    O    0.76738   0.94141   0.49367   1.000
    O412    O    0.98261   0.19464   0.50648   1.000
    O413    O    0.08329   0.25241   0.55666   1.000
    O414    O    0.97446   0.28295   0.57266   1.000
    O415    O    0.98261   0.69462   0.50648   1.000
    O416    O    0.08329   0.75240   0.55666   1.000
    O417    O    0.97445   0.78294   0.57266   1.000
    O418    O    0.48261   0.19464   0.50648   1.000
    O419    O    0.58328   0.25241   0.55666   1.000
    O420    O    0.47446   0.28295   0.57266   1.000
    O421    O    0.48261   0.69462   0.50648   1.000
    O422    O    0.58328   0.75240   0.55666   1.000
    O423    O    0.47445   0.78294   0.57266   1.000
    O424    O    0.73265   0.55860   0.50637   1.000
    O425    O    0.83323   0.52590   0.55674   1.000
    O426    O    0.72443   0.50341   0.57269   1.000
    O427    O    0.73265   0.05861   0.50637   1.000
    O428    O    0.83324   0.02591   0.55674   1.000
    O429    O    0.72443   0.00342   0.57269   1.000
    O430    O    0.23266   0.55860   0.50637   1.000
    O431    O    0.33324   0.52590   0.55674   1.000
    O432    O    0.22444   0.50341   0.57269   1.000
    O433    O    0.23266   0.05861   0.50637   1.000
    O434    O    0.33324   0.02591   0.55674   1.000
    O435    O    0.22444   0.00342   0.57269   1.000
    O436    O    0.70491   0.64608   0.53369   1.000
    O437    O    0.20492   0.14609   0.53369   1.000
    O438    O    0.20492   0.64608   0.53369   1.000
    O439    O    0.70491   0.14609   0.53369   1.000
    O440    O    0.95482   0.12082   0.53389   1.000
    O441    O    0.45483   0.12082   0.53389   1.000
    O442    O    0.45483   0.62081   0.53389   1.000
    O443    O    0.95482   0.62081   0.53389   1.000
    O444    O    0.68054   0.71489   0.58398   1.000
    O445    O    0.68055   0.21490   0.58398   1.000
    O446    O    0.18055   0.71489   0.58398   1.000
    O447    O    0.18055   0.21490   0.58398   1.000
    O448    O    0.43046   0.07710   0.58416   1.000
    O449    O    0.43046   0.57708   0.58416   1.000
    O450    O    0.93045   0.07710   0.58416   1.000
    O451    O    0.93045   0.57708   0.58416   1.000
    O452    O    0.46553   0.90154   0.65641   1.000
    O453    O    0.96553   0.40155   0.65643   1.000
    O454    O    0.46553   0.40155   0.65643   1.000
    O455    O    0.96553   0.90154   0.65643   1.000
    O456    O    0.71531   0.92670   0.65657   1.000
    O457    O    0.21532   0.42672   0.65657   1.000
    O458    O    0.21532   0.92670   0.65657   1.000
    O459    O    0.71531   0.42672   0.65657   1.000
    O460    O    0.45166   0.35208   0.66230   1.000
    O461    O    0.43437   0.29817   0.67160   1.000
    O462    O    0.45166   0.85207   0.66230   1.000
    O463    O    0.43437   0.79816   0.67162   1.000
    O464    O    0.95165   0.35208   0.66230   1.000
    O465    O    0.93437   0.29817   0.67162   1.000
    O466    O    0.95165   0.85207   0.66230   1.000
    O467    O    0.93436   0.79816   0.67162   1.000
    O468    O    0.70156   0.47912   0.66241   1.000
    O469    O    0.68441   0.53771   0.67170   1.000
    O470    O    0.70156   0.97912   0.66241   1.000
    O471    O    0.68442   0.03772   0.67170   1.000
    O472    O    0.20157   0.47912   0.66241   1.000
    O473    O    0.18442   0.53771   0.67170   1.000
    O474    O    0.20157   0.97912   0.66241   1.000
    O475    O    0.18442   0.03772   0.67170   1.000
    O476    O    0.41688   0.25129   0.68245   1.000
    O477    O    0.91686   0.75128   0.68267   1.000
    O478    O    0.91687   0.25129   0.68267   1.000
    O479    O    0.41687   0.75128   0.68267   1.000
    O480    O    0.66705   0.59013   0.68272   1.000
    O481    O    0.16706   0.59013   0.68272   1.000
    O482    O    0.16707   0.09014   0.68272   1.000
    O483    O    0.66706   0.09014   0.68275   1.000
    O484    O    0.94426   0.90786   0.72341   1.000
    O485    O    0.44427   0.40787   0.72341   1.000
    O486    O    0.44427   0.90786   0.72341   1.000
    O487    O    0.94426   0.40787   0.72341   1.000
    O488    O    0.69414   0.95390   0.72358   1.000
    O489    O    0.69414   0.45391   0.72358   1.000
    O490    O    0.19415   0.95390   0.72358   1.000
    O491    O    0.19415   0.45391   0.72358   1.000
    O492    O    0.40925   0.29795   0.74240   1.000
    O493    O    0.90924   0.79794   0.74243   1.000
    O494    O    0.90924   0.29795   0.74243   1.000
    O495    O    0.40925   0.79794   0.74243   1.000
    O496    O    0.15941   0.57335   0.74254   1.000
    O497    O    0.15942   0.07337   0.74254   1.000
    O498    O    0.65941   0.07337   0.74254   1.000
    O499    O    0.65940   0.57335   0.74254   1.000
    O500    O    0.43713   0.45665   0.78007   1.000
    O501    O    0.42060   0.40908   0.79595   1.000
    O502    O    0.43713   0.95663   0.78005   1.000
    O503    O    0.42059   0.90906   0.79595   1.000
    O504    O    0.93712   0.45664   0.78007   1.000
    O505    O    0.92059   0.40907   0.79597   1.000
    O506    O    0.93712   0.95663   0.78007   1.000
    O507    O    0.92058   0.90906   0.79596   1.000
    O508    O    0.18699   0.43348   0.78026   1.000
    O509    O    0.17058   0.48900   0.79616   1.000
    O510    O    0.18699   0.93346   0.78026   1.000
    O511    O    0.17058   0.98900   0.79616   1.000
    O512    O    0.68698   0.43348   0.78030   1.000
    O513    O    0.67057   0.48900   0.79616   1.000
    O514    O    0.68698   0.93347   0.78030   1.000
    O515    O    0.67057   0.98900   0.79616   1.000
    O516    O    0.90286   0.85306   0.80565   1.000
    O517    O    0.88697   0.79951   0.80635   1.000
    O518    O    0.90286   0.35307   0.80566   1.000
    O519    O    0.88697   0.29952   0.80637   1.000
    O520    O    0.40287   0.35307   0.80565   1.000
    O521    O    0.38699   0.29952   0.80637   1.000
    O522    O    0.40286   0.85306   0.80565   1.000
    O523    O    0.38698   0.79951   0.80637   1.000
    O524    O    0.65298   0.54986   0.80582   1.000
    O525    O    0.63723   0.60378   0.80650   1.000
    O526    O    0.65299   0.04988   0.80582   1.000
    O527    O    0.63723   0.10379   0.80650   1.000
    O528    O    0.15299   0.54986   0.80582   1.000
    O529    O    0.13724   0.60377   0.80650   1.000
    O530    O    0.15299   0.04987   0.80582   1.000
    O531    O    0.13724   0.10379   0.80650   1.000
    O532    O    0.89816   0.91001   0.87208   1.000
    O533    O    0.39817   0.41002   0.87208   1.000
    O534    O    0.39817   0.91001   0.87208   1.000
    O535    O    0.89816   0.41002   0.87209   1.000
    O536    O    0.64821   0.52611   0.87228   1.000
    O537    O    0.64821   0.02612   0.87228   1.000
    O538    O    0.14822   0.52611   0.87228   1.000
    O539    O    0.14822   0.02612   0.87228   1.000
    O540    O    0.88629   0.46450   0.93719   1.000
    O541    O    0.88206   0.40758   0.95983   1.000
    O542    O    0.38630   0.96450   0.93719   1.000
    O543    O    0.38208   0.90757   0.95984   1.000
    O544    O    0.38630   0.46450   0.93719   1.000
    O545    O    0.38208   0.40759   0.95984   1.000
    O546    O    0.88629   0.96450   0.93719   1.000
    O547    O    0.88207   0.90757   0.95984   1.000
    O548    O    0.13624   0.00416   0.93737   1.000
    O549    O    0.13624   0.50416   0.93737   1.000
    O550    O    0.63624   0.00416   0.93737   1.000
    O551    O    0.63624   0.50416   0.93738   1.000
loop_
    _geom_bond_atom_site_label_1
    _geom_bond_atom_site_label_2
    _geom_bond_distance
    _geom_bond_site_symmetry_2
    _ccdc_geom_bond_type
    C204   O256      0.86911      .   S
    C148   O256      0.86911      .   S
    C204   O257      0.86911  1_554   S
    C176   O257      0.86911      .   S
    C205   O258      0.86911      .   S
    C149   O258      0.86911      .   S
    C205   O259      0.86911  1_554   S
    C177   O259      0.86911      .   S
    C206   O260      0.86910      .   S
    C150   O260      0.86910      .   S
    C206   O261      0.86912  1_554   S
    C178   O261      0.86912      .   S
    C207   O262      0.86909      .   S
    C151   O262      0.86909      .   S
    C207   O263      0.86912  1_554   S
    C179   O263      0.86912      .   S
    C224   O264      0.66259  1_545   S
    C121   O264      0.66259      .   S
    C224   O265      0.67961  1_554   S
    C212   O265      0.67961  1_565   S
    C225   O266      0.66236      .   S
    C120   O266      0.66236      .   S
    C225   O267      0.67962  1_554   S
    C213   O267      0.67962      .   S
    C226   O268      0.66261  1_545   S
    C123   O268      0.66261      .   S
    C226   O269      0.67961  1_554   S
    C214   O269      0.67961  1_565   S
    C227   O270      0.66238      .   S
    C122   O270      0.66238      .   S
    C227   O271      0.67960  1_554   S
    C215   O271      0.67960      .   S
    C237   O272      0.66582      .   S
    C148   O272      0.66582      .   S
    C237   O273      0.67961  1_545   S
    C249   O273      0.67961  1_556   S
    C236   O274      0.66238      .   S
    C149   O274      0.66238      .   S
    C236   O275      0.67960      .   S
    C248   O275      0.67960  1_556   S
    C239   O276      0.66582      .   S
    C150   O276      0.66582      .   S
    C239   O277      0.67968  1_545   S
    C251   O277      0.67968  1_556   S
    C238   O278      0.66239      .   S
    C151   O278      0.66239      .   S
    C238   O279      0.67961      .   S
    C250   O279      0.67961  1_556   S
    C120   O280      0.73122      .   S
    C108   O280      0.73122      .   S
    C120   O281      0.86912      .   S
    C200   O281      0.86912  1_556   S
    C121   O282      0.73093      .   S
    C109   O282      0.73093      .   S
    C121   O283      0.86912      .   S
    C201   O283      0.86912  1_556   S
    C122   O284      0.73116      .   S
    C110   O284      0.73116      .   S
    C122   O285      0.86914      .   S
    C202   O285      0.86914  1_556   S
    C123   O286      0.73122      .   S
    C111   O286      0.73122      .   S
    C123   O287      0.86912      .   S
    C203   O287      0.86912  1_556   S
    C151   O288      0.73124      .   S
    C139   O288      0.73124      .   S
    C148   O289      0.73124      .   S
    C136   O289      0.73124      .   S
    C149   O290      0.73112      .   S
    C137   O290      0.73112      .   S
    C150   O291      0.73124      .   S
    C138   O291      0.73124      .   S
    C31    O292      0.54491      .   S
    C107   O292      0.54491      .   S
    C28    O293      0.54491      .   S
    C104   O293      0.54491      .   S
    C29    O294      0.54491      .   S
    C105   O294      0.54491      .   S
    C30    O295      0.54490      .   S
    C106   O295      0.54490      .   S
    C45    O296      0.54494      .   S
    C133   O296      0.54494      .   S
    C46    O297      0.54488      .   S
    C134   O297      0.54488      .   S
    C44    O298      0.54471      .   S
    C132   O298      0.54471      .   S
    C47    O299      0.54488      .   S
    C135   O299      0.54488      .   S
    C109   O300      0.70201      .   S
    C105   O300      0.70201      .   S
    C109   O301      0.70263  1_565   S
    C112   O301      0.70263      .   S
    C110   O302      0.70185      .   S
    C106   O302      0.70185      .   S
    C110   O303      0.70238      .   S
    C115   O303      0.70238      .   S
    C108   O304      0.70182      .   S
    C104   O304      0.70182      .   S
    C108   O305      0.70236      .   S
    C113   O305      0.70236      .   S
    C111   O306      0.70183      .   S
    C107   O306      0.70183      .   S
    C111   O307      0.70245  1_565   S
    C114   O307      0.70245      .   S
    C137   O308      0.70189      .   S
    C133   O308      0.70189      .   S
    C137   O309      0.70230      .   S
    C141   O309      0.70230      .   S
    C136   O310      0.70188      .   S
    C132   O310      0.70188      .   S
    C136   O311      0.70219      .   S
    C140   O311      0.70219      .   S
    C138   O312      0.70189      .   S
    C134   O312      0.70189      .   S
    C138   O313      0.70218      .   S
    C142   O313      0.70218      .   S
    C139   O314      0.70189      .   S
    C135   O314      0.70189      .   S
    C139   O315      0.70231      .   S
    C143   O315      0.70231      .   S
    C33    O316      0.54444      .   S
    C113   O316      0.54444      .   S
    C35    O317      0.54443      .   S
    C115   O317      0.54443      .   S
    C34    O318      0.54403      .   S
    C114   O318      0.54403      .   S
    C32    O319      0.54417      .   S
    C112   O319      0.54417      .   S
    C51    O320      0.54418      .   S
    C143   O320      0.54418      .   S
    C50    O321      0.54418      .   S
    C142   O321      0.54418      .   S
    C48    O322      0.54418      .   S
    C140   O322      0.54418      .   S
    C49    O323      0.54418      .   S
    C141   O323      0.54418      .   S
    C104   O324      0.69396      .   S
    C100   O324      0.69396      .   S
    C105   O325      0.69397      .   S
    C101   O325      0.69397      .   S
    C106   O326      0.69399      .   S
    C102   O326      0.69399      .   S
    C107   O327      0.69395      .   S
    C103   O327      0.69395      .   S
    C132   O328      0.69415      .   S
    C128   O328      0.69415      .   S
    C134   O329      0.69397      .   S
    C130   O329      0.69397      .   S
    C135   O330      0.69396      .   S
    C131   O330      0.69396      .   S
    C133   O331      0.69392      .   S
    C129   O331      0.69392      .   S
    C114   O332      0.69557      .   S
    C118   O332      0.69557      .   S
    C115   O333      0.69539      .   S
    C119   O333      0.69539      .   S
    C113   O334      0.69536      .   S
    C117   O334      0.69536      .   S
    C112   O335      0.69537      .   S
    C116   O335      0.69537      .   S
    C140   O336      0.69555      .   S
    C144   O336      0.69555      .   S
    C141   O337      0.69557      .   S
    C145   O337      0.69557      .   S
    C142   O338      0.69555      .   S
    C146   O338      0.69555      .   S
    C143   O339      0.69543      .   S
    C147   O339      0.69543      .   S
    C103   O340      0.54457      .   S
    C27    O340      0.54457      .   S
    C103   O341      0.67306      .   S
    C223   O341      0.67306      .   S
    C102   O342      0.54455      .   S
    C26    O342      0.54455      .   S
    C102   O343      0.67287      .   S
    C222   O343      0.67287      .   S
    C100   O344      0.54456      .   S
    C24    O344      0.54456      .   S
    C100   O345      0.67288      .   S
    C220   O345      0.67288      .   S
    C101   O346      0.54456      .   S
    C25    O346      0.54456      .   S
    C101   O347      0.67288      .   S
    C221   O347      0.67288      .   S
    C129   O348      0.54457      .   S
    C41    O348      0.54457      .   S
    C129   O349      0.67307      .   S
    C233   O349      0.67307      .   S
    C128   O350      0.54458      .   S
    C40    O350      0.54458      .   S
    C128   O351      0.67308      .   S
    C232   O351      0.67308      .   S
    C131   O352      0.54458      .   S
    C43    O352      0.54458      .   S
    C131   O353      0.67308      .   S
    C235   O353      0.67308      .   S
    C130   O354      0.54458      .   S
    C42    O354      0.54458      .   S
    C130   O355      0.67308      .   S
    C234   O355      0.67308      .   S
    C119   O356      0.67445      .   S
    C222   O356      0.67445      .   S
    C119   O357      0.54528      .   S
    C39    O357      0.54528      .   S
    C116   O358      0.67469      .   S
    C221   O358      0.67469  1_565   S
    C116   O359      0.54529      .   S
    C36    O359      0.54529      .   S
    C118   O360      0.67504      .   S
    C223   O360      0.67504  1_565   S
    C118   O361      0.54529      .   S
    C38    O361      0.54529      .   S
    C117   O362      0.67446      .   S
    C220   O362      0.67446      .   S
    C117   O363      0.54529      .   S
    C37    O363      0.54529      .   S
    C147   O364      0.67484      .   S
    C235   O364      0.67484      .   S
    C147   O365      0.54214      .   S
    C55    O365      0.54214      .   S
    C146   O366      0.67483      .   S
    C234   O366      0.67483      .   S
    C146   O367      0.54214      .   S
    C54    O367      0.54214      .   S
    C145   O368      0.67483      .   S
    C233   O368      0.67483      .   S
    C145   O369      0.54525      .   S
    C53    O369      0.54525      .   S
    C144   O370      0.67484      .   S
    C232   O370      0.67484      .   S
    C144   O371      0.54214      .   S
    C52    O371      0.54214      .   S
    C222   O372      1.21032      .   S
    C7     O372      1.21032      .   S
    C221   O373      1.21023      .   S
    C4     O373      1.21023  1_545   S
    C220   O374      1.21030      .   S
    C5     O374      1.21030      .   S
    C223   O375      1.20973      .   S
    C6     O375      1.20973  1_545   S
    C235   O376      1.20951      .   S
    C3     O376      1.20951      .   S
    C234   O377      1.20952      .   S
    C2     O377      1.20952      .   S
    C233   O378      1.20952      .   S
    C1     O378      1.20952      .   S
    C232   O379      1.20951      .   S
    C0     O379      1.20951      .   S
    C199   O380      0.81918      .   S
    C183   O380      0.81918      .   S
    C199   O381      1.38159      .   S
    C6     O381      1.38159  1_545   S
    C196   O382      0.81877      .   S
    C180   O382      0.81877      .   S
    C196   O383      1.38135      .   S
    C5     O383      1.38135      .   S
    C198   O384      0.81876      .   S
    C182   O384      0.81876      .   S
    C198   O385      1.38134      .   S
    C7     O385      1.38134      .   S
    C197   O386      0.81876      .   S
    C181   O386      0.81876      .   S
    C197   O387      1.38141      .   S
    C4     O387      1.38141  1_545   S
    C187   O388      0.81878      .   S
    C99    O388      0.81878      .   S
    C187   O389      1.38160      .   S
    C1     O389      1.38160  1_455   S
    C184   O390      0.81878      .   S
    C96    O390      0.81878      .   S
    C184   O391      1.38150      .   S
    C2     O391      1.38150      .   S
    C185   O392      0.81878      .   S
    C97    O392      0.81878      .   S
    C185   O393      1.38150      .   S
    C3     O393      1.38150      .   S
    C186   O394      0.81864      .   S
    C98    O394      0.81864      .   S
    C186   O395      1.38160      .   S
    C0     O395      1.38160  1_455   S
    C180   O396      0.59310      .   S
    C252   O396      0.59310      .   S
    C181   O397      0.59311      .   S
    C253   O397      0.59311      .   S
    C182   O398      0.59310      .   S
    C254   O398      0.59310      .   S
    C183   O399      0.59310      .   S
    C255   O399      0.59310      .   S
    C98    O400      0.59322      .   S
    C218   O400      0.59322      .   S
    C99    O401      0.59308      .   S
    C219   O401      0.59308      .   S
    C97    O402      0.59308      .   S
    C217   O402      0.59308      .   S
    C96    O403      0.59308      .   S
    C216   O403      0.59308      .   S
    C255   O404      1.16597      .   S
    C3     O404      1.16597      .   S
    C252   O405      1.16597      .   S
    C0     O405      1.16597      .   S
    C253   O406      1.16596      .   S
    C1     O406      1.16596      .   S
    C254   O407      1.16597      .   S
    C2     O407      1.16597      .   S
    C216   O408      1.16609      .   S
    C5     O408      1.16609      .   S
    C217   O409      1.16632      .   S
    C4     O409      1.16632  1_545   S
    C218   O410      1.16610      .   S
    C7     O410      1.16610      .   S
    C219   O411      1.16632      .   S
    C6     O411      1.16632  1_545   S
    C0     O412      1.16600  1_455   S
    C230   O412      1.16600      .   S
    C0     O413      1.38148      .   S
    C192   O413      1.38148      .   S
    C0     O414      1.20958  1_455   S
    C210   O414      1.20958      .   S
    C1     O415      1.16601  1_455   S
    C231   O415      1.16601      .   S
    C1     O416      1.38147      .   S
    C193   O416      1.38147      .   S
    C1     O417      1.20959  1_455   S
    C211   O417      1.20959      .   S
    C2     O418      1.16597      .   S
    C228   O418      1.16597      .   S
    C2     O419      1.38147      .   S
    C194   O419      1.38147      .   S
    C2     O420      1.20952      .   S
    C208   O420      1.20952      .   S
    C3     O421      1.16597      .   S
    C229   O421      1.16597      .   S
    C3     O422      1.38147      .   S
    C195   O422      1.38147      .   S
    C3     O423      1.20952      .   S
    C209   O423      1.20952      .   S
    C7     O424      1.16610      .   S
    C243   O424      1.16610      .   S
    C7     O425      1.38132      .   S
    C191   O425      1.38132      .   S
    C7     O426      1.20975      .   S
    C247   O426      1.20975      .   S
    C6     O427      1.16609      .   S
    C242   O427      1.16609      .   S
    C6     O428      1.38132      .   S
    C190   O428      1.38132      .   S
    C6     O429      1.20975      .   S
    C246   O429      1.20975      .   S
    C5     O430      1.16610      .   S
    C241   O430      1.16610      .   S
    C5     O431      1.38132      .   S
    C189   O431      1.38132      .   S
    C5     O432      1.20975      .   S
    C245   O432      1.20975      .   S
    C4     O433      1.16610      .   S
    C240   O433      1.16610      .   S
    C4     O434      1.38133      .   S
    C188   O434      1.38133      .   S
    C4     O435      1.20975      .   S
    C244   O435      1.20975      .   S
    C243   O436      0.59306      .   S
    C155   O436      0.59306      .   S
    C240   O437      0.59306      .   S
    C152   O437      0.59306      .   S
    C241   O438      0.59306      .   S
    C153   O438      0.59306      .   S
    C242   O439      0.59306      .   S
    C154   O439      0.59306      .   S
    C230   O440      0.59304      .   S
    C126   O440      0.59304      .   S
    C228   O441      0.59304      .   S
    C124   O441      0.59304      .   S
    C229   O442      0.59305      .   S
    C125   O442      0.59305      .   S
    C231   O443      0.59304      .   S
    C127   O443      0.59304      .   S
    C155   O444      0.81879      .   S
    C195   O444      0.81879      .   S
    C154   O445      0.81879      .   S
    C194   O445      0.81879      .   S
    C153   O446      0.81878      .   S
    C193   O446      0.81878      .   S
    C152   O447      0.81878      .   S
    C192   O447      0.81878      .   S
    C124   O448      0.81876      .   S
    C188   O448      0.81876      .   S
    C125   O449      0.81877      .   S
    C189   O449      0.81877      .   S
    C126   O450      0.81877      .   S
    C190   O450      0.81877      .   S
    C127   O451      0.81877      .   S
    C191   O451      0.81877      .   S
    C21    O452      0.54557      .   S
    C89    O452      0.54557      .   S
    C22    O453      0.54532      .   S
    C90    O453      0.54532      .   S
    C20    O454      0.54531      .   S
    C88    O454      0.54531      .   S
    C23    O455      0.54531      .   S
    C91    O455      0.54531      .   S
    C71    O456      0.54527      .   S
    C175   O456      0.54527      .   S
    C68    O457      0.54528      .   S
    C172   O457      0.54528      .   S
    C69    O458      0.54528      .   S
    C173   O458      0.54528      .   S
    C70    O459      0.54527      .   S
    C174   O459      0.54527      .   S
    C208   O460      0.67483      .   S
    C88    O460      0.67483      .   S
    C208   O461      0.67271      .   S
    C72    O461      0.67271      .   S
    C209   O462      0.67483      .   S
    C89    O462      0.67483      .   S
    C209   O463      0.67302      .   S
    C73    O463      0.67302      .   S
    C210   O464      0.67483      .   S
    C90    O464      0.67483      .   S
    C210   O465      0.67302      .   S
    C74    O465      0.67302      .   S
    C211   O466      0.67483      .   S
    C91    O466      0.67483      .   S
    C211   O467      0.67300      .   S
    C75    O467      0.67300      .   S
    C247   O468      0.67482      .   S
    C174   O468      0.67482      .   S
    C247   O469      0.67308      .   S
    C159   O469      0.67308      .   S
    C246   O470      0.67504  1_545   S
    C175   O470      0.67504      .   S
    C246   O471      0.67307      .   S
    C158   O471      0.67307      .   S
    C245   O472      0.67482      .   S
    C172   O472      0.67482      .   S
    C245   O473      0.67308      .   S
    C157   O473      0.67308      .   S
    C244   O474      0.67504  1_545   S
    C173   O474      0.67504      .   S
    C244   O475      0.67308      .   S
    C156   O475      0.67308      .   S
    C8     O476      0.54473      .   S
    C72    O476      0.54473      .   S
    C11    O477      0.54457      .   S
    C75    O477      0.54457      .   S
    C10    O478      0.54457      .   S
    C74    O478      0.54457      .   S
    C9     O479      0.54457      .   S
    C73    O479      0.54457      .   S
    C59    O480      0.54478      .   S
    C159   O480      0.54478      .   S
    C57    O481      0.54479      .   S
    C157   O481      0.54479      .   S
    C56    O482      0.54478      .   S
    C156   O482      0.54478      .   S
    C58    O483      0.54453      .   S
    C158   O483      0.54453      .   S
    C91    O484      0.69540      .   S
    C87    O484      0.69540      .   S
    C88    O485      0.69531      .   S
    C84    O485      0.69531      .   S
    C89    O486      0.69531      .   S
    C85    O486      0.69531      .   S
    C90    O487      0.69538      .   S
    C86    O487      0.69538      .   S
    C175   O488      0.69542      .   S
    C171   O488      0.69542      .   S
    C174   O489      0.69540      .   S
    C170   O489      0.69540      .   S
    C173   O490      0.69541      .   S
    C169   O490      0.69541      .   S
    C172   O491      0.69540      .   S
    C168   O491      0.69540      .   S
    C72    O492      0.69428      .   S
    C76    O492      0.69428      .   S
    C75    O493      0.69399      .   S
    C79    O493      0.69399      .   S
    C74    O494      0.69398      .   S
    C78    O494      0.69398      .   S
    C73    O495      0.69397      .   S
    C77    O495      0.69397      .   S
    C157   O496      0.69392      .   S
    C161   O496      0.69392      .   S
    C156   O497      0.69393      .   S
    C160   O497      0.69393      .   S
    C158   O498      0.69394      .   S
    C162   O498      0.69394      .   S
    C159   O499      0.69393      .   S
    C163   O499      0.69393      .   S
    C84    O500      0.54418      .   S
    C16    O500      0.54418      .   S
    C84    O501      0.70230      .   S
    C80    O501      0.70230      .   S
    C85    O502      0.54418      .   S
    C17    O502      0.54418      .   S
    C85    O503      0.70230      .   S
    C81    O503      0.70230      .   S
    C86    O504      0.54418      .   S
    C18    O504      0.54418      .   S
    C86    O505      0.70236      .   S
    C82    O505      0.70236      .   S
    C87    O506      0.54418      .   S
    C19    O506      0.54418      .   S
    C87    O507      0.70222      .   S
    C83    O507      0.70222      .   S
    C168   O508      0.54380      .   S
    C64    O508      0.54380      .   S
    C168   O509      0.70237      .   S
    C165   O509      0.70237      .   S
    C169   O510      0.54379      .   S
    C65    O510      0.54379      .   S
    C169   O511      0.70253      .   S
    C164   O511      0.70253  1_545   S
    C170   O512      0.54415      .   S
    C66    O512      0.54415      .   S
    C170   O513      0.70238      .   S
    C167   O513      0.70238      .   S
    C171   O514      0.54415      .   S
    C67    O514      0.54415      .   S
    C171   O515      0.70252      .   S
    C166   O515      0.70252  1_545   S
    C79    O516      0.70189      .   S
    C83    O516      0.70189      .   S
    C79    O517      0.54470      .   S
    C15    O517      0.54470      .   S
    C78    O518      0.70189      .   S
    C82    O518      0.70189      .   S
    C78    O519      0.54494      .   S
    C14    O519      0.54494      .   S
    C76    O520      0.70189      .   S
    C80    O520      0.70189      .   S
    C76    O521      0.54494      .   S
    C12    O521      0.54494      .   S
    C77    O522      0.70188      .   S
    C81    O522      0.70188      .   S
    C77    O523      0.54494      .   S
    C13    O523      0.54494      .   S
    C163   O524      0.70189      .   S
    C167   O524      0.70189      .   S
    C163   O525      0.54492      .   S
    C63    O525      0.54492      .   S
    C162   O526      0.70189      .   S
    C166   O526      0.70189      .   S
    C162   O527      0.54492      .   S
    C62    O527      0.54492      .   S
    C161   O528      0.70189      .   S
    C165   O528      0.70189      .   S
    C161   O529      0.54492      .   S
    C61    O529      0.54492      .   S
    C160   O530      0.70189      .   S
    C164   O530      0.70189      .   S
    C160   O531      0.54492      .   S
    C60    O531      0.54492      .   S
    C83    O532      0.73138      .   S
    C95    O532      0.73138      .   S
    C80    O533      0.73137      .   S
    C92    O533      0.73137      .   S
    C81    O534      0.73137      .   S
    C93    O534      0.73137      .   S
    C82    O535      0.73124      .   S
    C94    O535      0.73124      .   S
    C167   O536      0.73116      .   S
    C179   O536      0.73116      .   S
    C166   O537      0.73117      .   S
    C178   O537      0.73117      .   S
    C165   O538      0.73116      .   S
    C177   O538      0.73116      .   S
    C164   O539      0.73117      .   S
    C176   O539      0.73117      .   S
    C94    O540      0.66239      .   S
    C215   O540      0.66239      .   S
    C94    O541      0.86898      .   S
    C202   O541      0.86898      .   S
    C93    O542      0.66261      .   S
    C212   O542      0.66261      .   S
    C93    O543      0.86901      .   S
    C201   O543      0.86901      .   S
    C92    O544      0.66239      .   S
    C213   O544      0.66239      .   S
    C92    O545      0.86901      .   S
    C200   O545      0.86901      .   S
    C95    O546      0.66261      .   S
    C214   O546      0.66261      .   S
    C95    O547      0.86903      .   S
    C203   O547      0.86903      .   S
    C176   O548      0.66260      .   S
    C249   O548      0.66260  1_565   S
    C177   O549      0.66238      .   S
    C248   O549      0.66238      .   S
    C178   O550      0.66259      .   S
    C251   O550      0.66259  1_565   S
    C179   O551      0.66241      .   S
    C250   O551      0.66241      .   S
