# CIF file generated by openbabel 2.4.90, see http://openbabel.sf.net
data_I
_chemical_name_common 'VESTA_phase_1'
_cell_length_a 13.463
_cell_length_b 13.224
_cell_length_c 13.238
_cell_angle_alpha 91.965
_cell_angle_beta 98.987
_cell_angle_gamma 81.006
_space_group_name_H-M_alt 'P 1'
_space_group_name_Hall 'P 1'
loop_
    _symmetry_equiv_pos_as_xyz
    x,y,z
loop_
    _atom_site_label
    _atom_site_type_symbol
    _atom_site_fract_x
    _atom_site_fract_y
    _atom_site_fract_z
    _atom_site_occupancy
    Zn0     Zn   0.01290   0.36507   0.71216   1.000
    Zn1     Zn   0.17877   0.24447   0.60419   1.000
    Zn2     Zn   0.51292   0.28743   0.63492   1.000
    Zn3     Zn   0.67877   0.39573   0.75547   1.000
    H4      H    0.49352   0.00000   0.21104   1.000
    H5      H    0.45000   0.92310   0.13050   1.000
    H6      H    0.62890   0.88407   0.01175   1.000
    H7      H    0.57545   0.78621   0.06570   1.000
    H8      H    0.59897   0.89354   0.33159   1.000
    H9      H    0.69640   0.80177   0.28875   1.000
    H10     H    0.70139   0.00000   0.13211   1.000
    H11     H    0.77258   0.92194   0.21410   1.000
    H12     H    0.32062   0.05411   0.11075   1.000
    H13     H    0.50694   0.12510   0.89232   1.000
    H14     H    0.16859   0.14980   0.00000   1.000
    H15     H    0.35608   0.22320   0.79040   1.000
    H16     H    0.62587   0.73113   0.91678   1.000
    H17     H    0.90424   0.66385   0.12979   1.000
    H18     H    0.68997   0.59678   0.80049   1.000
    H19     H    0.97236   0.53215   0.00713   1.000
    H20     H    0.45055   0.61643   0.22921   1.000
    H21     H    0.66271   0.76570   0.43878   1.000
    H22     H    0.45696   0.48335   0.36143   1.000
    H23     H    0.66895   0.63292   0.56652   1.000
    H24     H    0.88586   0.99468   0.27973   1.000
    H25     H    0.64592   0.14971   0.43665   1.000
    H26     H    0.00000   0.05919   0.41076   1.000
    H27     H    0.77565   0.21815   0.56459   1.000
    H28     H    0.99352   0.78877   0.97636   1.000
    H29     H    0.95003   0.86947   0.07693   1.000
    H30     H    0.12889   0.98837   0.11594   1.000
    H31     H    0.07538   0.93433   0.21366   1.000
    H32     H    0.09896   0.66819   0.10655   1.000
    H33     H    0.19637   0.71111   0.19821   1.000
    H34     H    0.20149   0.86795   0.97868   1.000
    H35     H    0.27259   0.78567   0.07810   1.000
    H36     H    0.82084   0.88896   0.94619   1.000
    H37     H    0.00000   0.10763   0.87477   1.000
    H38     H    0.66876   0.99486   0.85027   1.000
    H39     H    0.85603   0.20941   0.77658   1.000
    H40     H    0.12573   0.08331   0.26899   1.000
    H41     H    0.40418   0.87003   0.33578   1.000
    H42     H    0.18984   0.19954   0.40337   1.000
    H43     H    0.47231   0.99264   0.46754   1.000
    H44     H    0.95043   0.77109   0.38328   1.000
    H45     H    0.16263   0.56104   0.23438   1.000
    H46     H    0.95684   0.63891   0.51600   1.000
    H47     H    0.16888   0.43335   0.36720   1.000
    H48     H    0.38583   0.72034   0.00000   1.000
    H49     H    0.14591   0.56319   0.85038   1.000
    H50     H    0.51368   0.58928   0.94049   1.000
    H51     H    0.27564   0.43523   0.78182   1.000
    C52     C    0.61443   0.90628   0.17244   1.000
    C53     C    0.50955   0.97245   0.14647   1.000
    C54     C    0.63362   0.83717   0.07989   1.000
    C55     C    0.61833   0.84244   0.26789   1.000
    C56     C    0.69952   0.97287   0.19737   1.000
    C57     C    0.42354   0.08261   0.00716   1.000
    C58     C    0.32832   0.08917   0.03970   1.000
    C59     C    0.43287   0.13094   0.91712   1.000
    C60     C    0.24315   0.14324   0.98061   1.000
    C61     C    0.34768   0.18508   0.85943   1.000
    C62     C    0.25134   0.19149   0.89002   1.000
    C63     C    0.15976   0.24921   0.83014   1.000
    C64     C    0.76158   0.70538   0.03140   1.000
    C65     C    0.70093   0.68691   0.93862   1.000
    C66     C    0.85921   0.64871   0.05668   1.000
    C67     C    0.73758   0.61029   0.87270   1.000
    C68     C    0.89616   0.57546   0.98888   1.000
    C69     C    0.83518   0.55432   0.89661   1.000
    C70     C    0.87651   0.47507   0.82567   1.000
    C71     C    0.55593   0.69919   0.32498   1.000
    C72     C    0.49731   0.61977   0.30396   1.000
    C73     C    0.61723   0.70465   0.42031   1.000
    C74     C    0.50133   0.54584   0.37731   1.000
    C75     C    0.62065   0.63003   0.49279   1.000
    C76     C    0.56352   0.54980   0.47267   1.000
    C77     C    0.57178   0.47068   0.55223   1.000
    C78     C    0.75708   0.06805   0.35041   1.000
    C79     C    0.86076   0.04215   0.34248   1.000
    C80     C    0.72676   0.13077   0.43100   1.000
    C81     C    0.93300   0.07896   0.41581   1.000
    C82     C    0.79924   0.16851   0.50261   1.000
    C83     C    0.90351   0.14323   0.49575   1.000
    C84     C    0.98005   0.18979   0.56793   1.000
    C85     C    0.11444   0.82749   0.09374   1.000
    C86     C    0.00960   0.85345   0.02764   1.000
    C87     C    0.13358   0.92014   0.16277   1.000
    C88     C    0.11832   0.73199   0.15750   1.000
    C89     C    0.19955   0.80255   0.02723   1.000
    C90     C    0.92365   0.99268   0.91745   1.000
    C91     C    0.82848   0.95998   0.91099   1.000
    C92     C    0.93290   0.08276   0.86900   1.000
    C93     C    0.74329   0.01902   0.85681   1.000
    C94     C    0.84770   0.14037   0.81480   1.000
    C95     C    0.75143   0.10963   0.80844   1.000
    C96     C    0.65978   0.16921   0.75058   1.000
    C97     C    0.26150   0.96855   0.29452   1.000
    C98     C    0.20081   0.06141   0.31312   1.000
    C99     C    0.35915   0.94318   0.35105   1.000
    C100    C    0.23746   0.12729   0.38975   1.000
    C101    C    0.39609   0.01098   0.42431   1.000
    C102    C    0.33508   0.10329   0.44559   1.000
    C103    C    0.37645   0.17419   0.52484   1.000
    C104    C    0.05585   0.67506   0.30071   1.000
    C105    C    0.99720   0.69624   0.38003   1.000
    C106    C    0.11715   0.57962   0.29536   1.000
    C107    C    0.00000   0.62291   0.45398   1.000
    C108    C    0.12057   0.50717   0.30000   1.000
    C109    C    0.06342   0.52744   0.45012   1.000
    C110    C    0.07168   0.44786   0.52922   1.000
    C111    C    0.25707   0.64953   0.93191   1.000
    C112    C    0.36073   0.65753   0.95760   1.000
    C113    C    0.22675   0.56839   0.86920   1.000
    C114    C    0.43297   0.58418   0.92080   1.000
    C115    C    0.29923   0.49727   0.83141   1.000
    C116    C    0.40349   0.50417   0.85660   1.000
    C117    C    0.48005   0.43195   0.81000   1.000
    O118    O    0.51225   0.03074   0.05765   1.000
    O119    O    0.73294   0.77754   0.10220   1.000
    O120    O    0.54939   0.76886   0.24846   1.000
    O121    O    0.67893   0.03598   0.28437   1.000
    O122    O    0.07339   0.25682   0.85560   1.000
    O123    O    0.17047   0.29819   0.74700   1.000
    O124    O    0.82175   0.41226   0.77744   1.000
    O125    O    0.96914   0.47084   0.81401   1.000
    O126    O    0.52279   0.39561   0.53271   1.000
    O127    O    0.62997   0.48486   0.63630   1.000
    O128    O    0.07479   0.15624   0.56470   1.000
    O129    O    0.94625   0.26120   0.62666   1.000
    O130    O    0.01237   0.94226   0.96934   1.000
    O131    O    0.23288   0.89776   0.22236   1.000
    O132    O    0.04934   0.75156   0.23102   1.000
    O133    O    0.17893   0.71557   0.96409   1.000
    O134    O    0.57367   0.14311   0.74265   1.000
    O135    O    0.67019   0.25270   0.70180   1.000
    O136    O    0.32172   0.22249   0.58761   1.000
    O137    O    0.46911   0.18574   0.52911   1.000
    O138    O    0.02266   0.46743   0.60421   1.000
    O139    O    0.12991   0.36369   0.51510   1.000
    O140    O    0.57476   0.43517   0.84360   1.000
    O141    O    0.44630   0.37317   0.73868   1.000
loop_
    _geom_bond_atom_site_label_1
    _geom_bond_atom_site_label_2
    _geom_bond_distance
    _geom_bond_site_symmetry_2
    _ccdc_geom_bond_type
    H48    C112      1.05628  1_554   S
    H14    C60       1.06422  1_554   S
    H19    C68       1.08953  1_554   S
    C57    C58       1.40426      .   S
    C57    O118      1.36728      .   S
    C57    C59       1.40321  1_554   S
    H6     C54       1.10025      .   S
    C89    H35       1.09775      .   S
    C89    C85       1.54082      .   S
    C89    O133      1.43539  1_554   S
    C89    H34       1.10089  1_554   S
    C86    H29       1.10210  1_455   S
    C86    C85       1.53596      .   S
    C86    O130      1.43566  1_554   S
    C86    H28       1.10071  1_454   S
    C64    C66       1.40460      .   S
    C64    O119      1.36903      .   S
    C64    C65       1.40121  1_554   S
    C58    H12       1.08893      .   S
    C58    C60       1.39274  1_554   S
    C66    H17       1.08885      .   S
    C66    C68       1.38585  1_554   S
    O118   C53       1.43608  1_545   S
    H7     C54       1.10146      .   S
    C54    O119      1.43527      .   S
    C54    C52       1.53338      .   S
    C85    C88       1.53256      .   S
    C85    C87       1.53330      .   S
    H32    C88       1.09971      .   S
    H30    C87       1.10030      .   S
    H5     C53       1.10205      .   S
    H10    C56       0.95215  1_545   S
    C53    C52       1.53628      .   S
    C53    H4        0.96004  1_565   S
    C88    H33       1.10156      .   S
    C88    O132      1.43761      .   S
    C87    H31       1.10150      .   S
    C87    O131      1.43522      .   S
    C52    C56       1.54087      .   S
    C52    C55       1.53317      .   S
    C56    H11       1.09773      .   S
    C56    O121      1.43574  1_565   S
    O131   C97       1.36891      .   S
    H20    C72       1.09024      .   S
    O132   C104      1.37589      .   S
    H45    C106      1.08656      .   S
    O120   C55       1.43699      .   S
    O120   C71       1.37602      .   S
    C55    H9        1.10133      .   S
    C55    H8        1.10010      .   S
    H40    C98       1.08745      .   S
    H24    C79       1.08812  1_565   S
    O121   C78       1.37041      .   S
    C97    C98       1.40162  1_565   S
    C97    C99       1.40455      .   S
    C106   C108      0.95549      .   S
    C106   C104      1.40208      .   S
    C108   H47       1.35928      .   S
    C104   C105      1.40503  1_455   S
    C72    C71       1.40498      .   S
    C72    C74       1.39057      .   S
    C98    C100      1.39603      .   S
    C71    C73       1.40209      .   S
    H41    C99       1.08883      .   S
    C79    C78       1.40368      .   S
    C79    C81       1.39496      .   S
    C78    C80       1.40082      .   S
    C99    C101      1.38598  1_565   S
    H22    C74       1.08949      .   S
    C74    C76       1.40582      .   S
    C105   H44       1.09024      .   S
    C105   C107      1.39369  1_655   S
    C100   H42       1.09056      .   S
    C100   C102      1.39883      .   S
    H26    C81       0.91126  1_455   S
    C81    C83       1.40136      .   S
    C73    H21       1.08662      .   S
    C73    C75       1.39045      .   S
    C101   C102      1.40686      .   S
    C101   H43       1.08978  1_545   S
    C80    H25       1.09163      .   S
    C80    C82       1.38954      .   S
    C102   C103      1.48426      .   S
    C109   C107      1.41341      .   S
    C109   C110      1.48954      .   S
    C107   H46       1.07478  1_455   S
    C76    C75       1.39993      .   S
    C76    C77       1.48966      .   S
    C75    H23       1.08807      .   S
    C83    C82       1.40767      .   S
    C83    C84       1.48472      .   S
    C82    H27       1.08822      .   S
    O139   C110      1.28341      .   S
    O139   Zn1       1.96720      .   S
    C103   O137      1.27270      .   S
    C103   O136      1.28417      .   S
    O137   Zn2       1.99472      .   S
    C110   O138      1.27341      .   S
    O126   C77       1.27321      .   S
    O126   Zn2       2.03546      .   S
    C77    O127      1.28324      .   S
    O128   C84       1.29013  1_455   S
    O128   Zn1       1.95827      .   S
    C84    O129      1.27635      .   S
    O136   Zn1       1.94665      .   S
    Zn1    O123      2.01005      .   S
    O138   Zn0       2.03434      .   S
    O129   Zn0       1.98347  1_655   S
    Zn2    O141      1.98420      .   S
    O127   Zn3       1.96755      .   S
    O135   C96       1.33457      .   S
    O135   Zn3       2.01146      .   S
    Zn0    O125      1.99569  1_455   S
    O141   C117      1.27597      .   S
    O134   C96       1.24855      .   S
    O123   C63       1.33391      .   S
    C96    C95       1.47386      .   S
    Zn3    O124      1.94681      .   S
    Zn3    O140      1.95807      .   S
    H39    C94       1.08803      .   S
    O124   C70       1.28420      .   S
    H51    C115      1.08823      .   S
    H15    C61       1.08797      .   S
    H18    C67       1.09050      .   S
    C95    C94       1.40718      .   S
    C95    C93       1.40469      .   S
    C117   O140      1.29001      .   S
    C117   C116      1.48507      .   S
    O125   C70       1.27270      .   S
    C94    C92       1.38497      .   S
    C70    C69       1.48436      .   S
    C63    O122      1.24864      .   S
    C63    C62       1.47420      .   S
    C115   C116      1.40767      .   S
    C115   C113      1.38576      .   S
    H38    C93       1.08974  1_565   S
    H49    C113      1.09023      .   S
    C116   C114      1.40127      .   S
    C93    C91       1.39317  1_545   S
    C61    C62       1.40734      .   S
    C61    C59       1.38500      .   S
    C92    H37       0.99977  1_655   S
    C92    C90       1.40353  1_545   S
    C113   C111      1.40610      .   S
    C67    C69       1.39884      .   S
    C67    C65       1.39607      .   S
    C62    C60       1.40478      .   S
    H13    C59       1.08846      .   S
    C69    C68       1.40684      .   S
    C91    C90       1.40437      .   S
    C91    H36       1.08849      .   S
    H16    C65       1.08742      .   S
    C90    O130      1.36717  1_655   S
    C114   H50       1.08927      .   S
    C114   C112      1.39448      .   S
    C111   C112      1.40359      .   S
    C111   O133      1.37046      .   S
    O123   Zn0       2.15186      .   S
    O135   Zn2       2.14844      .   S
