# CIF file generated by openbabel 2.4.90, see http://openbabel.sf.net
data_I
_chemical_name_common ''
_cell_length_a 14.809
_cell_length_b 21.175
_cell_length_c 21.172
_cell_angle_alpha 83.049
_cell_angle_beta 69.624
_cell_angle_gamma 69.642
_space_group_name_H-M_alt 'P 1'
_space_group_name_Hall 'P 1'
loop_
    _symmetry_equiv_pos_as_xyz
    x,y,z
loop_
    _atom_site_label
    _atom_site_type_symbol
    _atom_site_fract_x
    _atom_site_fract_y
    _atom_site_fract_z
    _atom_site_occupancy
    H0      H    0.54951   0.89014   0.20657   1.000
    H1      H    0.53670   0.09794   0.18433   1.000
    H2      H    0.55919   0.89248   0.32242   1.000
    H3      H    0.54890   0.09147   0.30080   1.000
    H4      H    0.14697   0.60942   0.29342   1.000
    H5      H    0.31812   0.40156   0.31599   1.000
    H6      H    0.27466   0.60689   0.17768   1.000
    H7      H    0.44016   0.40781   0.19960   1.000
    H8      H    0.75518   0.79329   0.39040   1.000
    H9      H    0.71987   0.81585   0.59828   1.000
    H10     H    0.88014   0.67751   0.39292   1.000
    H11     H    0.84795   0.69943   0.59196   1.000
    H12     H    0.44014   0.70662   0.10976   1.000
    H13     H    0.63428   0.68429   0.90197   1.000
    H14     H    0.45220   0.82245   0.10742   1.000
    H15     H    0.64011   0.80073   0.90845   1.000
    H16     H    0.45049   0.10986   0.79344   1.000
    H17     H    0.46329   0.90205   0.81568   1.000
    H18     H    0.44080   0.10752   0.67750   1.000
    H19     H    0.45109   0.90853   0.69921   1.000
    H20     H    0.85300   0.39058   0.70659   1.000
    H21     H    0.68186   0.59844   0.68401   1.000
    H22     H    0.72532   0.39312   0.82233   1.000
    H23     H    0.55982   0.59219   0.80040   1.000
    H24     H    0.24483   0.20671   0.60957   1.000
    H25     H    0.28012   0.18414   0.40173   1.000
    H26     H    0.11986   0.32249   0.60708   1.000
    H27     H    0.15205   0.30056   0.40804   1.000
    C28     C    0.40659   0.28636   0.05175   1.000
    C29     C    0.50793   0.21002   0.93700   1.000
    C30     C    0.40354   0.22207   0.04813   1.000
    N31     N    0.55421   0.99198   0.31635   1.000
    N32     N    0.36234   0.50733   0.18380   1.000
    N33     N    0.86895   0.68372   0.49246   1.000
    N34     N    0.54635   0.81633   0.00791   1.000
    N35     N    0.44578   0.00801   0.68366   1.000
    H36     H    0.55986   0.29338   0.89025   1.000
    H37     H    0.36571   0.31571   0.09800   1.000
    H38     H    0.54781   0.17755   0.89259   1.000
    H39     H    0.35988   0.19927   0.09157   1.000
    C40     C    0.53106   0.99586   0.11988   1.000
    C41     C    0.54157   0.99429   0.18672   1.000
    C42     C    0.54918   0.93551   0.22607   1.000
    C43     C    0.54192   0.05165   0.21367   1.000
    C44     C    0.55484   0.93688   0.28997   1.000
    C45     C    0.54852   0.04804   0.27790   1.000
    C46     C    0.14674   0.50381   0.38019   1.000
    C47     C    0.22252   0.50524   0.31343   1.000
    C48     C    0.21113   0.56399   0.27400   1.000
    C49     C    0.30670   0.44782   0.28660   1.000
    C50     C    0.28196   0.56250   0.21017   1.000
    C51     C    0.37392   0.45132   0.22230   1.000
    C52     C    0.65025   0.88011   0.49608   1.000
    C53     C    0.72728   0.81330   0.49460   1.000
    C54     C    0.77417   0.77388   0.43585   1.000
    C55     C    0.75436   0.78645   0.55201   1.000
    C56     C    0.84341   0.71001   0.43731   1.000
    C57     C    0.82495   0.72217   0.54847   1.000
    C58     C    0.52689   0.61993   0.00400   1.000
    C59     C    0.53592   0.68674   0.00500   1.000
    C60     C    0.48501   0.72610   0.06439   1.000
    C61     C    0.59340   0.71365   0.94827   1.000
    C62     C    0.49207   0.78998   0.06302   1.000
    C63     C    0.59645   0.77793   0.95188   1.000
    C64     C    0.46893   0.00414   0.88013   1.000
    C65     C    0.45842   0.00570   0.81329   1.000
    C66     C    0.45081   0.06448   0.77394   1.000
    C67     C    0.45807   0.94835   0.78634   1.000
    C68     C    0.44516   0.06311   0.71004   1.000
    C69     C    0.45147   0.95196   0.72203   1.000
    C70     C    0.85324   0.49619   0.61982   1.000
    C71     C    0.77746   0.49476   0.68658   1.000
    C72     C    0.78885   0.43602   0.72600   1.000
    C73     C    0.69329   0.55218   0.71341   1.000
    C74     C    0.71801   0.43750   0.78984   1.000
    C75     C    0.62606   0.54868   0.77768   1.000
    C76     C    0.34975   0.11989   0.50392   1.000
    C77     C    0.27272   0.18670   0.50540   1.000
    C78     C    0.22584   0.22613   0.56415   1.000
    C79     C    0.24564   0.21354   0.44800   1.000
    C80     C    0.15659   0.28999   0.56269   1.000
    C81     C    0.17504   0.27783   0.45153   1.000
    C82     C    0.47310   0.38008   0.99596   1.000
    C83     C    0.46408   0.31326   0.99442   1.000
    C84     C    0.51498   0.27390   0.93563   1.000
    N85     N    0.63763   0.49268   0.81612   1.000
    N86     N    0.13105   0.31628   0.50750   1.000
    N87     N    0.45365   0.18367   0.99210   1.000
    O88     O    0.53435   0.94138   0.09630   1.000
    O89     O    0.51697   0.05183   0.08682   1.000
    O90     O    0.07232   0.55836   0.40353   1.000
    O91     O    0.15519   0.44795   0.41340   1.000
    O92     O    0.63011   0.90356   0.44157   1.000
    O93     O    0.60326   0.91329   0.55199   1.000
    O94     O    0.47596   0.59640   0.05859   1.000
    O95     O    0.56840   0.58685   0.94810   1.000
    O96     O    0.46564   0.05862   0.90371   1.000
    O97     O    0.48302   0.94817   0.91319   1.000
    O98     O    0.92766   0.44164   0.59648   1.000
    O99     O    0.84479   0.55205   0.58661   1.000
    O100    O    0.36989   0.09644   0.55844   1.000
    O101    O    0.39674   0.08671   0.44800   1.000
    O102    O    0.52402   0.40361   0.94142   1.000
    O103    O    0.43158   0.41316   0.05180   1.000
loop_
    _geom_bond_atom_site_label_1
    _geom_bond_atom_site_label_2
    _geom_bond_distance
    _geom_bond_site_symmetry_2
    _ccdc_geom_bond_type
    C58    C59       1.46995      .   S
    C58    O94       1.29148      .   S
    C58    O95       1.28984  1_554   S
    C59    C60       1.41438      .   S
    C59    C61       1.39704  1_554   S
    N34    C62       1.34911      .   S
    N34    C63       1.34889  1_554   S
    C30    C28       1.38976      .   S
    C30    H39       1.09206      .   S
    C30    N87       1.34891  1_554   S
    C28    H37       1.08831      .   S
    C28    C83       1.40469  1_554   S
    O103   C82       1.28883  1_554   S
    C62    C60       1.38853      .   S
    C62    H14       1.09203      .   S
    C60    H12       1.08850      .   S
    O89    C40       1.29108  1_545   S
    O88    C40       1.29063      .   S
    C40    C41       1.47187      .   S
    H6     C50       1.09215      .   S
    N32    C50       1.34943      .   S
    N32    C51       1.34987      .   S
    H1     C43       1.08907      .   S
    C41    C43       1.40528  1_565   S
    C41    C42       1.40457      .   S
    H7     C51       1.09188      .   S
    H0     C42       1.08855      .   S
    C50    C48       1.38844      .   S
    C43    C45       1.38813      .   S
    C51    C49       1.39031      .   S
    C42    C44       1.38863      .   S
    C48    H4        1.08864      .   S
    C48    C47       1.40477      .   S
    C45    H3        1.09284      .   S
    C45    N31       1.35018  1_545   S
    C49    C47       1.40513      .   S
    C49    H5        1.08903      .   S
    C44    N31       1.34903      .   S
    C44    H2        1.09211      .   S
    C47    C46       1.47200      .   S
    C46    O90       1.29081      .   S
    C46    O91       1.29072      .   S
    H8     C54       1.08919      .   S
    H10    C56       1.09214      .   S
    H25    C79       1.08911      .   S
    H27    C81       1.09204      .   S
    C54    C56       1.38869      .   S
    C54    C53       1.40459      .   S
    C56    N33       1.34903      .   S
    O92    C52       1.29048      .   S
    C79    C81       1.38980      .   S
    C79    C77       1.40514      .   S
    O101   C76       1.29111      .   S
    C81    N86       1.34845      .   S
    N33    C57       1.34908      .   S
    C53    C52       1.47196      .   S
    C53    C55       1.40532      .   S
    C52    O93       1.29093      .   S
    C76    C77       1.47195      .   S
    C76    O100      1.29068      .   S
    C77    C78       1.40463      .   S
    N86    C80       1.34981      .   S
    C57    C55       1.38978      .   S
    C57    H11       1.09204      .   S
    C55    H9        1.08908      .   S
    C80    C78       1.38868      .   S
    C80    H26       1.09217      .   S
    C78    H24       1.08860      .   S
    O99    C70       1.29070      .   S
    O98    C70       1.29081      .   S
    C70    C71       1.47201      .   S
    H18    C68       1.09313      .   S
    N35    C68       1.34905      .   S
    N35    C69       1.34929  1_545   S
    H21    C73       1.08913      .   S
    C71    C73       1.40515      .   S
    C71    C72       1.40463      .   S
    H19    C69       1.09194      .   S
    H20    C72       1.08860      .   S
    C68    C66       1.38862      .   S
    C73    C75       1.38986      .   S
    C69    C67       1.38982      .   S
    C72    C74       1.38859      .   S
    C66    H16       1.08859      .   S
    C66    C65       1.40456      .   S
    C75    H23       1.09201      .   S
    C75    N85       1.34915      .   S
    C67    C65       1.40530  1_565   S
    C67    H17       1.08907      .   S
    C74    N85       1.34905      .   S
    C74    H22       1.09212      .   S
    C65    C64       1.47186      .   S
    C64    O96       1.29063      .   S
    C64    O97       1.29106  1_545   S
    H36    C84       1.08864      .   S
    H38    C29       1.09220      .   S
    H13    C61       1.08912      .   S
    H15    C63       1.09193      .   S
    C84    C29       1.38855      .   S
    C84    C83       1.40459      .   S
    C29    N87       1.34898      .   S
    O102   C82       1.29080      .   S
    C61    C63       1.38972      .   S
    C83    C82       1.47187      .   S
