# CIF file generated by openbabel 2.4.90, see http://openbabel.sf.net
data_I
_chemical_name_common ''
_cell_length_a 14.809
_cell_length_b 21.175
_cell_length_c 21.172
_cell_angle_alpha 83.049
_cell_angle_beta 69.624
_cell_angle_gamma 69.642
_space_group_name_H-M_alt 'P 1'
_space_group_name_Hall 'P 1'
loop_
    _symmetry_equiv_pos_as_xyz
    x,y,z
loop_
    _atom_site_label
    _atom_site_type_symbol
    _atom_site_fract_x
    _atom_site_fract_y
    _atom_site_fract_z
    _atom_site_occupancy
    N0      N    0.54361   0.99381   0.21752   1.000
    N1      N    0.25483   0.50569   0.28262   1.000
    N2      N    0.75999   0.78251   0.49415   1.000
    N3      N    0.53747   0.71754   0.00606   1.000
    N4      N    0.45638   0.00619   0.78247   1.000
    N5      N    0.74515   0.49431   0.71737   1.000
    N6      N    0.24001   0.21749   0.50585   1.000
    N7      N    0.46252   0.28246   0.99389   1.000
    Zr8     Zr   0.49999   0.50001   0.00000   1.000
    O9      O    0.58394   0.49709   0.89981   1.000
    O10     O    0.41604   0.50291   0.10018   1.000
    Zr11    Zr   0.50000   0.00000   0.50000   1.000
    O12     O    0.48070   0.00313   0.60012   1.000
    O13     O    0.51930   0.99687   0.39988   1.000
    Zr14    Zr   0.99999   0.50000   0.50000   1.000
    O15     O    0.91873   0.60014   0.49700   1.000
    O16     O    0.08125   0.39986   0.50299   1.000
    Zr17    Zr   0.49999   0.00000   0.99996   1.000
    O18     O    0.51621   0.89988   0.00305   1.000
    O19     O    0.48378   0.10012   0.99689   1.000
    O20     O    0.51213   0.56584   0.00194   1.000
    O21     O    0.48785   0.43417   0.99805   1.000
    O22     O    0.92206   0.49818   0.56579   1.000
    O23     O    0.07792   0.50182   0.43421   1.000
    O24     O    0.57958   0.93418   0.49813   1.000
    O25     O    0.48588   0.00197   0.93415   1.000
    O26     O    0.51411   0.99803   0.06580   1.000
    O27     O    0.42042   0.06582   0.50186   1.000
loop_
    _geom_bond_atom_site_label_1
    _geom_bond_atom_site_label_2
    _geom_bond_distance
    _geom_bond_site_symmetry_2
    _ccdc_geom_bond_type
    Zr8    O9        2.04724  1_554   S
    N5     O9        3.76274      .   S
    Zr8    O10       2.04699      .   S
    N1     O10       3.76278      .   S
    Zr11   O12       2.04419      .   S
    N4     O12       3.75701      .   S
    Zr11   O13       2.04420  1_545   S
    N0     O13       3.75710      .   S
    Zr14   O15       2.04786      .   S
    N2     O15       3.76409      .   S
    Zr14   O16       2.04786  1_655   S
    N6     O16       3.76412      .   S
    Zr17   O18       2.04449  1_546   S
    N3     O18       3.75752      .   S
    Zr17   O19       2.04454      .   S
    N7     O19       3.75761      .   S
    N3     O20       3.37582      .   S
    Zr8    O20       1.47338      .   S
    N7     O21       3.37598      .   S
    Zr8    O21       1.47347  1_554   S
    Zr14   O22       1.47374      .   S
    N5     O22       3.37658      .   S
    Zr14   O23       1.47373  1_655   S
    N1     O23       3.37662      .   S
    N2     O24       3.37614      .   S
    Zr11   O24       1.47347  1_545   S
    N4     O25       3.37519      .   S
    Zr17   O25       1.47293      .   S
    N0     O26       3.37605      .   S
    Zr17   O26       1.47349  1_546   S
    N6     O27       3.37614      .   S
    Zr11   O27       1.47347      .   S
