# CIF file generated by openbabel 2.4.90, see http://openbabel.sf.net
data_I
_chemical_name_common ''
_cell_length_a 14.809
_cell_length_b 21.175
_cell_length_c 21.172
_cell_angle_alpha 83.049
_cell_angle_beta 69.624
_cell_angle_gamma 69.642
_space_group_name_H-M_alt 'P 1'
_space_group_name_Hall 'P 1'
loop_
    _symmetry_equiv_pos_as_xyz
    x,y,z
loop_
    _atom_site_label
    _atom_site_type_symbol
    _atom_site_fract_x
    _atom_site_fract_y
    _atom_site_fract_z
    _atom_site_occupancy
    N0      N    0.91619   0.95182   0.85368   1.000
    N1      N    0.77024   0.14649   0.45173   1.000
    N2      N    0.54361   0.99381   0.21752   1.000
    N3      N    0.22210   0.54826   0.64658   1.000
    N4      N    0.25483   0.50569   0.28262   1.000
    N5      N    0.75999   0.78251   0.49415   1.000
    N6      N    0.86823   0.35364   0.04786   1.000
    N7      N    0.13151   0.64637   0.95196   1.000
    N8      N    0.53747   0.71754   0.00606   1.000
    N9      N    0.08379   0.04802   0.14626   1.000
    N10     N    0.45638   0.00619   0.78247   1.000
    N11     N    0.77788   0.45175   0.35342   1.000
    N12     N    0.74515   0.49431   0.71737   1.000
    N13     N    0.22969   0.85348   0.54825   1.000
    N14     N    0.24001   0.21749   0.50585   1.000
    N15     N    0.46252   0.28246   0.99389   1.000
    Zr16    Zr   0.49999   0.50001   0.00000   1.000
    O17     O    0.61994   0.45556   0.00137   1.000
    O18     O    0.40218   0.54219   0.97168   1.000
    O19     O    0.49908   0.43300   0.98460   1.000
    O20     O    0.58394   0.49709   0.89981   1.000
    O21     O    0.52337   0.56467   0.98848   1.000
    O22     O    0.59774   0.45782   0.02828   1.000
    O23     O    0.41604   0.50291   0.10018   1.000
    O24     O    0.37998   0.54445   0.99859   1.000
    O25     O    0.50090   0.56701   0.01539   1.000
    O26     O    0.47662   0.43534   0.01150   1.000
    Zr27    Zr   0.50000   0.00000   0.50000   1.000
    O28     O    0.41607   0.95780   0.52840   1.000
    O29     O    0.48070   0.00313   0.60012   1.000
    O30     O    0.57711   0.04451   0.49849   1.000
    O31     O    0.41712   0.06701   0.51532   1.000
    O32     O    0.57628   0.93537   0.51158   1.000
    O33     O    0.42287   0.95549   0.50150   1.000
    O34     O    0.58391   0.04219   0.47158   1.000
    O35     O    0.51930   0.99687   0.39988   1.000
    O36     O    0.42371   0.06463   0.48841   1.000
    O37     O    0.58288   0.93299   0.48468   1.000
    Zr38    Zr   0.99999   0.50000   0.50000   1.000
    O39     O    0.91873   0.60014   0.49700   1.000
    O40     O    0.06786   0.51527   0.43301   1.000
    O41     O    0.05562   0.52841   0.54221   1.000
    O42     O    0.92445   0.49849   0.45545   1.000
    O43     O    0.91201   0.51163   0.56458   1.000
    O44     O    0.08798   0.48837   0.43542   1.000
    O45     O    0.93212   0.48473   0.56699   1.000
    O46     O    0.07553   0.50151   0.54455   1.000
    O47     O    0.08125   0.39986   0.50299   1.000
    O48     O    0.94436   0.47159   0.45779   1.000
    Zr49    Zr   0.49999   0.00000   0.99996   1.000
    O50     O    0.51621   0.89988   0.00305   1.000
    O51     O    0.37856   0.00143   0.04440   1.000
    O52     O    0.51624   0.98457   0.06697   1.000
    O53     O    0.48802   0.98852   0.93532   1.000
    O54     O    0.62595   0.97163   0.95780   1.000
    O55     O    0.51197   0.01148   0.06464   1.000
    O56     O    0.48374   0.01542   0.93299   1.000
    O57     O    0.48378   0.10012   0.99689   1.000
    O58     O    0.37403   0.02833   0.04214   1.000
    O59     O    0.62143   0.99853   0.95554   1.000
loop_
    _geom_bond_atom_site_label_1
    _geom_bond_atom_site_label_2
    _geom_bond_distance
    _geom_bond_site_symmetry_2
    _ccdc_geom_bond_type
    Zr16   O17       1.70531      .   S
    N6     O17       3.95358      .   S
    Zr16   O18       1.68238  1_554   S
    N7     O18       3.98725      .   S
    Zr16   O19       1.49931  1_554   S
    N15    O19       3.38636      .   S
    Zr16   O20       2.04724  1_554   S
    N12    O20       3.76274      .   S
    Zr16   O21       1.49822  1_554   S
    N8     O21       3.38766  1_554   S
    Zr16   O22       1.68107      .   S
    N6     O22       3.98383      .   S
    Zr16   O23       2.04699      .   S
    N4     O23       3.76278      .   S
    Zr16   O24       1.70638  1_554   S
    N7     O24       3.95731      .   S
    Zr16   O25       1.49920      .   S
    N8     O25       3.38624      .   S
    Zr16   O26       1.49824      .   S
    N15    O26       3.38784  1_556   S
    Zr27   O28       1.68141  1_545   S
    N13    O28       3.98552      .   S
    Zr27   O29       2.04419      .   S
    N10    O29       3.75701      .   S
    Zr27   O30       1.70571      .   S
    N1     O30       3.95368      .   S
    Zr27   O31       1.49920      .   S
    N14    O31       3.38663      .   S
    Zr27   O32       1.49841  1_545   S
    N5     O32       3.38792      .   S
    Zr27   O33       1.70607  1_545   S
    N13    O33       3.95469      .   S
    Zr27   O34       1.68109      .   S
    N1     O34       3.98448      .   S
    Zr27   O35       2.04420  1_545   S
    N2     O35       3.75710      .   S
    Zr27   O36       1.49842      .   S
    N14    O36       3.38791      .   S
    Zr27   O37       1.49921  1_545   S
    N5     O37       3.38662      .   S
    Zr38   O39       2.04786      .   S
    N5     O39       3.76409      .   S
    Zr38   O40       1.49966  1_655   S
    N4     O40       3.38691      .   S
    Zr38   O41       1.68126  1_655   S
    N3     O41       3.98452      .   S
    Zr38   O42       1.70554      .   S
    N11    O42       3.95398      .   S
    Zr38   O43       1.49849      .   S
    N12    O43       3.38854      .   S
    Zr38   O44       1.49847  1_655   S
    N4     O44       3.38859      .   S
    Zr38   O45       1.49966      .   S
    N12    O45       3.38688      .   S
    Zr38   O46       1.70557  1_655   S
    N3     O46       3.95402      .   S
    Zr38   O47       2.04786  1_655   S
    N14    O47       3.76412      .   S
    Zr38   O48       1.68123      .   S
    N11    O48       3.98451      .   S
    Zr49   O50       2.04449  1_546   S
    N8     O50       3.75752      .   S
    Zr49   O51       1.70612  1_556   S
    N9     O51       3.95508      .   S
    Zr49   O52       1.49927  1_546   S
    N2     O52       3.38651      .   S
    Zr49   O53       1.49784  1_545   S
    N10    O53       3.38700  1_545   S
    Zr49   O54       1.68160  1_545   S
    N0     O54       3.98515      .   S
    Zr49   O55       1.49839  1_556   S
    N2     O55       3.38786  1_565   S
    Zr49   O56       1.49871      .   S
    N10    O56       3.38566      .   S
    Zr49   O57       2.04454      .   S
    N15    O57       3.75761      .   S
    Zr49   O58       1.68163  1_556   S
    N9     O58       3.98570      .   S
    Zr49   O59       1.70581  1_545   S
    N0     O59       3.95487      .   S
