# CIF file generated by openbabel 2.4.90, see http://openbabel.sf.net
data_I
_chemical_name_common ''
_cell_length_a 14.809
_cell_length_b 21.175
_cell_length_c 21.172
_cell_angle_alpha 83.049
_cell_angle_beta 69.624
_cell_angle_gamma 69.642
_space_group_name_H-M_alt 'P 1'
_space_group_name_Hall 'P 1'
loop_
    _symmetry_equiv_pos_as_xyz
    x,y,z
loop_
    _atom_site_label
    _atom_site_type_symbol
    _atom_site_fract_x
    _atom_site_fract_y
    _atom_site_fract_z
    _atom_site_occupancy
    Zr0     Zr   0.50841   0.94761   0.00453   1.000
    Zr1     Zr   0.96098   0.55239   0.49527   1.000
    Zr2     Zr   0.51296   0.99533   0.44761   1.000
    Zr3     Zr   0.45635   0.50457   0.05241   1.000
    Zr4     Zr   0.49158   0.05239   0.99540   1.000
    Zr5     Zr   0.03900   0.44761   0.50473   1.000
    Zr6     Zr   0.48703   0.00467   0.55239   1.000
    Zr7     Zr   0.54362   0.49544   0.94760   1.000
    O8      O    0.49999   0.00000   0.99996   1.000
    O9      O    0.99999   0.50000   0.50000   1.000
    O10     O    0.50000   0.00000   0.50000   1.000
    O11     O    0.49999   0.50001   0.00000   1.000
    N12     N    0.91619   0.95182   0.85368   1.000
    O13     O    0.75191   0.94326   0.91563   1.000
    O14     O    0.74286   0.99706   0.91111   1.000
    N15     N    0.77024   0.14649   0.45173   1.000
    O16     O    0.66782   0.08439   0.44317   1.000
    O17     O    0.65423   0.08901   0.49699   1.000
    N18     N    0.54361   0.99381   0.21752   1.000
    O19     O    0.53860   0.99373   0.29975   1.000
    O20     O    0.53249   0.96915   0.13397   1.000
    O21     O    0.52394   0.02296   0.12932   1.000
    N22     N    0.22210   0.54826   0.64658   1.000
    O23     O    0.11125   0.55682   0.58441   1.000
    O24     O    0.15108   0.50302   0.58909   1.000
    N25     N    0.25483   0.50569   0.28262   1.000
    O26     O    0.33209   0.50582   0.20036   1.000
    O27     O    0.13574   0.53053   0.36601   1.000
    O28     O    0.17596   0.47674   0.37084   1.000
    N29     N    0.75999   0.78251   0.49415   1.000
    O30     O    0.83748   0.70028   0.49401   1.000
    O31     O    0.66576   0.86597   0.46937   1.000
    O32     O    0.65257   0.87074   0.52317   1.000
    N33     N    0.86823   0.35364   0.04786   1.000
    O34     O    0.69549   0.41563   0.05655   1.000
    O35     O    0.73989   0.41112   0.00274   1.000
    N36     N    0.13151   0.64637   0.95196   1.000
    O37     O    0.30437   0.58438   0.94336   1.000
    O38     O    0.25997   0.58890   0.99717   1.000
    N39     N    0.53747   0.71754   0.00606   1.000
    O40     O    0.53243   0.79975   0.00614   1.000
    O41     O    0.50181   0.63401   0.03078   1.000
    O42     O    0.54674   0.62934   0.97695   1.000
    N43     N    0.08379   0.04802   0.14626   1.000
    O44     O    0.24808   0.05667   0.08432   1.000
    O45     O    0.25713   0.00286   0.08884   1.000
    N46     N    0.45638   0.00619   0.78247   1.000
    O47     O    0.46140   0.00627   0.70025   1.000
    O48     O    0.46750   0.03085   0.86601   1.000
    O49     O    0.47605   0.97704   0.87067   1.000
    N50     N    0.77788   0.45175   0.35342   1.000
    O51     O    0.88873   0.44319   0.41559   1.000
    O52     O    0.84890   0.49699   0.41091   1.000
    N53     N    0.74515   0.49431   0.71737   1.000
    O54     O    0.66789   0.49418   0.79962   1.000
    O55     O    0.86424   0.46947   0.63399   1.000
    O56     O    0.82402   0.52326   0.62916   1.000
    N57     N    0.22969   0.85348   0.54825   1.000
    O58     O    0.33215   0.91560   0.55681   1.000
    O59     O    0.34574   0.91097   0.50300   1.000
    N60     N    0.24001   0.21749   0.50585   1.000
    O61     O    0.16252   0.29972   0.50598   1.000
    O62     O    0.33424   0.13403   0.53063   1.000
    O63     O    0.34743   0.12926   0.47683   1.000
    N64     N    0.46252   0.28246   0.99389   1.000
    O65     O    0.46757   0.20025   0.99382   1.000
    O66     O    0.49817   0.36599   0.96920   1.000
    O67     O    0.45324   0.37067   0.02300   1.000
loop_
    _geom_bond_atom_site_label_1
    _geom_bond_atom_site_label_2
    _geom_bond_distance
    _geom_bond_site_symmetry_2
    _ccdc_geom_bond_type
    Zr0    O8        1.06862  1_564   S
    Zr4    O8        1.06860      .   S
    Zr1    O9        1.06858      .   S
    Zr5    O9        1.06858  1_455   S
    Zr2    O10       1.06866  1_565   S
    Zr6    O10       1.06865      .   S
    Zr3    O11       1.06826      .   S
    Zr7    O11       1.06826  1_556   S
    N12    O13       2.38738      .   S
    Zr0    O13       3.41158  1_554   S
    N12    O14       2.32011      .   S
    Zr4    O14       3.35451  1_545   S
    N15    O16       2.38742      .   S
    Zr2    O16       3.41174  1_565   S
    N15    O17       2.31896      .   S
    Zr6    O17       3.35303      .   S
    N18    O19       1.71634      .   S
    Zr2    O19       3.02228      .   S
    N18    O20       1.97867      .   S
    Zr0    O20       2.99034      .   S
    N18    O21       1.98195  1_565   S
    Zr4    O21       2.99459  1_556   S
    N22    O23       2.38728      .   S
    Zr1    O23       3.41114  1_655   S
    N22    O24       2.31934      .   S
    Zr5    O24       3.35378      .   S
    N25    O26       1.71921      .   S
    Zr3    O26       3.02848      .   S
    N25    O27       1.97864      .   S
    Zr1    O27       2.99039  1_655   S
    N25    O28       1.98258      .   S
    Zr5    O28       2.99548      .   S
    N29    O30       1.71960      .   S
    Zr1    O30       3.03014      .   S
    N29    O31       1.97879      .   S
    Zr2    O31       2.99052      .   S
    N29    O32       1.98201      .   S
    Zr6    O32       2.99433  1_545   S
    N33    O34       2.38651      .   S
    Zr3    O34       3.41047      .   S
    N33    O35       2.31934      .   S
    Zr7    O35       3.35358  1_556   S
    N36    O37       2.38848      .   S
    Zr7    O37       3.41262      .   S
    N36    O38       2.32200      .   S
    Zr3    O38       3.35619  1_554   S
    N39    O40       1.71648      .   S
    Zr0    O40       3.02280      .   S
    N39    O41       1.97848      .   S
    Zr3    O41       2.99016      .   S
    N39    O42       1.98184  1_554   S
    Zr7    O42       2.99423      .   S
    N43    O44       2.38797      .   S
    Zr4    O44       3.41216  1_556   S
    N43    O45       2.31993      .   S
    Zr0    O45       3.35461  1_565   S
    N46    O47       1.71625      .   S
    Zr6    O47       3.02228      .   S
    N46    O48       1.97839      .   S
    Zr4    O48       2.98922      .   S
    N46    O49       1.98166  1_545   S
    Zr0    O49       2.99347  1_554   S
    N50    O51       2.38730      .   S
    Zr5    O51       3.41110  1_455   S
    N50    O52       2.31933      .   S
    Zr1    O52       3.35370      .   S
    N53    O54       1.71893      .   S
    Zr7    O54       3.02897      .   S
    N53    O55       1.97860      .   S
    Zr5    O55       2.99042  1_455   S
    N53    O56       1.98252      .   S
    Zr1    O56       2.99549      .   S
    N57    O58       2.38803      .   S
    Zr6    O58       3.41257  1_545   S
    N57    O59       2.31956      .   S
    Zr2    O59       3.35366      .   S
    N60    O61       1.71964      .   S
    Zr5    O61       3.03014      .   S
    N60    O62       1.97882      .   S
    Zr6    O62       2.99052      .   S
    N60    O63       1.98201      .   S
    Zr2    O63       2.99433  1_565   S
    N64    O65       1.71651      .   S
    Zr4    O65       3.02294      .   S
    N64    O66       1.97845      .   S
    Zr7    O66       2.99019      .   S
    N64    O67       1.98188  1_556   S
    Zr3    O67       2.99464      .   S
