# CIF file generated by openbabel 2.4.90, see http://openbabel.sf.net
data_I
_chemical_name_common ''
_cell_length_a 18.795
_cell_length_b 18.726
_cell_length_c 18.724
_cell_angle_alpha 60.224
_cell_angle_beta 60.401
_cell_angle_gamma 60.366
_space_group_name_H-M_alt 'P 1'
_space_group_name_Hall 'P 1'
loop_
    _symmetry_equiv_pos_as_xyz
    x,y,z
loop_
    _atom_site_label
    _atom_site_type_symbol
    _atom_site_fract_x
    _atom_site_fract_y
    _atom_site_fract_z
    _atom_site_occupancy
    Zn0     Zn   0.37210   0.54247   0.54249   1.000
    Zn1     Zn   0.54276   0.54347   0.54336   1.000
    Zn2     Zn   0.54249   0.54281   0.37111   1.000
    Zn3     Zn   0.12731   0.95767   0.95760   1.000
    Zn4     Zn   0.95762   0.12847   0.95721   1.000
    Zn5     Zn   0.95761   0.95724   0.12838   1.000
    Zn6     Zn   0.95728   0.95656   0.95666   1.000
    Zn7     Zn   0.54243   0.37108   0.54281   1.000
    O8      O    0.99967   0.00002   0.99996   1.000
    O9      O    0.50017   0.49995   0.49990   1.000
loop_
    _geom_bond_atom_site_label_1
    _geom_bond_atom_site_label_2
    _geom_bond_distance
    _geom_bond_site_symmetry_2
    _ccdc_geom_bond_type
    Zn2    O9        1.97641      .   S
    O9     Zn0       1.97558      .   S
    Zn4    O8        1.97072      .   S
    Zn3    O8        1.96894  1_465   S
    O8     Zn5       1.97073  1_546   S
    O8     Zn6       1.97193  1_545   S
    O9     Zn7       1.97718      .   S
    O9     Zn1       1.97854      .   S
