# CIF file generated by openbabel 2.4.90, see http://openbabel.sf.net
data_I
_chemical_name_common ''
_cell_length_a 18.795
_cell_length_b 18.726
_cell_length_c 18.724
_cell_angle_alpha 60.224
_cell_angle_beta 60.401
_cell_angle_gamma 60.366
_space_group_name_H-M_alt 'P 1'
_space_group_name_Hall 'P 1'
loop_
    _symmetry_equiv_pos_as_xyz
    x,y,z
loop_
    _atom_site_label
    _atom_site_type_symbol
    _atom_site_fract_x
    _atom_site_fract_y
    _atom_site_fract_z
    _atom_site_occupancy
    N0      N    0.24277   0.75715   0.75710   1.000
    N1      N    0.75718   0.24279   0.24276   1.000
    N2      N    0.24278   0.75719   0.24279   1.000
    N3      N    0.75714   0.24276   0.75711   1.000
    N4      N    0.75715   0.75714   0.24271   1.000
    N5      N    0.24278   0.24281   0.75718   1.000
    Zr6     Zr   0.49999   0.49996   0.49993   1.000
    Zr7     Zr   0.99990   0.99999   0.99996   1.000
    O8      O    0.91960   0.08031   0.91945   1.000
    O9      O    0.91960   0.91947   0.08027   1.000
    O10     O    0.08027   0.08050   0.91964   1.000
    O11     O    0.08019   0.91955   0.91952   1.000
    O12     O    0.08027   0.91968   0.08046   1.000
    O13     O    0.91970   0.08043   0.08038   1.000
    O14     O    0.58392   0.41600   0.58405   1.000
    O15     O    0.58392   0.58408   0.41597   1.000
    O16     O    0.41601   0.41585   0.58391   1.000
    O17     O    0.41609   0.58402   0.58398   1.000
    O18     O    0.41601   0.58393   0.41584   1.000
    O19     O    0.58385   0.41590   0.41589   1.000
loop_
    _geom_bond_atom_site_label_1
    _geom_bond_atom_site_label_2
    _geom_bond_distance
    _geom_bond_site_symmetry_2
    _ccdc_geom_bond_type
    Zr7    O8        2.13619  1_565   S
    N3     O8        4.31465      .   S
    Zr7    O9        2.13752  1_556   S
    N4     O9        4.31693      .   S
    Zr7    O10       2.13825  1_665   S
    N5     O10       4.31738      .   S
    Zr7    O11       2.13901  1_655   S
    N0     O11       4.31862      .   S
    Zr7    O12       2.13697  1_656   S
    N2     O12       4.31520      .   S
    Zr7    O13       2.13858  1_566   S
    N1     O13       4.31764      .   S
    N3     O14       4.59990      .   S
    Zr6    O14       2.23226      .   S
    N4     O15       4.60262      .   S
    Zr6    O15       2.23377      .   S
    N5     O16       4.60254      .   S
    Zr6    O16       2.23417      .   S
    Zr6    O17       2.23502      .   S
    N0     O17       4.60348      .   S
    Zr6    O18       2.23262      .   S
    N2     O18       4.59994      .   S
    Zr6    O19       2.23492      .   S
    N1     O19       4.60326      .   S
