# CIF file generated by openbabel 2.4.90, see http://openbabel.sf.net
data_I
_chemical_name_common ''
_cell_length_a 18.795
_cell_length_b 18.726
_cell_length_c 18.724
_cell_angle_alpha 60.224
_cell_angle_beta 60.401
_cell_angle_gamma 60.366
_space_group_name_H-M_alt 'P 1'
_space_group_name_Hall 'P 1'
loop_
    _symmetry_equiv_pos_as_xyz
    x,y,z
loop_
    _atom_site_label
    _atom_site_type_symbol
    _atom_site_fract_x
    _atom_site_fract_y
    _atom_site_fract_z
    _atom_site_occupancy
    N0      N    0.24277   0.75715   0.75710   1.000
    N1      N    0.75718   0.24279   0.24276   1.000
    N2      N    0.24278   0.75719   0.24279   1.000
    N3      N    0.75714   0.24276   0.75711   1.000
    N4      N    0.75715   0.75714   0.24271   1.000
    N5      N    0.24278   0.24281   0.75718   1.000
    Zr6     Zr   0.49999   0.49996   0.49993   1.000
    O7      O    0.43421   0.58398   0.39753   1.000
    O8      O    0.58390   0.58399   0.39760   1.000
    O9      O    0.58387   0.43424   0.39755   1.000
    O10     O    0.58388   0.39762   0.58398   1.000
    O11     O    0.43421   0.39753   0.58394   1.000
    O12     O    0.58384   0.39755   0.43424   1.000
    O13     O    0.58396   0.43439   0.58412   1.000
    O14     O    0.58395   0.58417   0.43434   1.000
    O15     O    0.43431   0.58414   0.58409   1.000
    O16     O    0.39781   0.58388   0.43415   1.000
    O17     O    0.39781   0.43416   0.58387   1.000
    O18     O    0.39787   0.58390   0.58388   1.000
    Zr19    Zr   0.99990   0.99999   0.99996   1.000
    O20     O    0.09841   0.91973   0.06219   1.000
    O21     O    0.09841   0.06223   0.91968   1.000
    O22     O    0.09835   0.91968   0.91964   1.000
    O23     O    0.06213   0.91963   0.09872   1.000
    O24     O    0.91964   0.91956   0.09860   1.000
    O25     O    0.91971   0.06213   0.09867   1.000
    O26     O    0.91955   0.06197   0.91939   1.000
    O27     O    0.91957   0.91938   0.06195   1.000
    O28     O    0.06203   0.91942   0.91940   1.000
    O29     O    0.91965   0.09865   0.91951   1.000
    O30     O    0.06213   0.09877   0.91960   1.000
    O31     O    0.91970   0.09873   0.06209   1.000
loop_
    _geom_bond_atom_site_label_1
    _geom_bond_atom_site_label_2
    _geom_bond_distance
    _geom_bond_site_symmetry_2
    _ccdc_geom_bond_type
    Zr6    O7        2.25881      .   S
    N2     O7        4.61337      .   S
    Zr6    O8        2.26039      .   S
    N4     O8        4.61503      .   S
    Zr6    O9        2.26141      .   S
    N1     O9        4.61603      .   S
    Zr6    O10       2.25890      .   S
    N3     O10       4.61240      .   S
    Zr6    O11       2.26039      .   S
    N5     O11       4.61591      .   S
    Zr6    O12       2.26126      .   S
    N1     O12       4.61627      .   S
    Zr6    O13       2.25869      .   S
    N3     O13       4.61329      .   S
    Zr6    O14       2.26012      .   S
    N4     O14       4.61603      .   S
    Zr6    O15       2.26113      .   S
    N0     O15       4.61736      .   S
    Zr6    O16       2.25928      .   S
    N2     O16       4.61229      .   S
    Zr6    O17       2.26072      .   S
    N5     O17       4.61491      .   S
    Zr6    O18       2.26170      .   S
    N0     O18       4.61534      .   S
    Zr19   O20       2.16442  1_656   S
    N2     O20       4.32851      .   S
    Zr19   O21       2.16570  1_665   S
    N5     O21       4.33063      .   S
    Zr19   O22       2.16639  1_655   S
    N0     O22       4.33160      .   S
    Zr19   O23       2.16438  1_656   S
    N2     O23       4.32919      .   S
    Zr19   O24       2.16495  1_556   S
    N4     O24       4.33039      .   S
    Zr19   O25       2.16597  1_566   S
    N1     O25       4.33131      .   S
    Zr19   O26       2.16378  1_565   S
    N3     O26       4.32873      .   S
    Zr19   O27       2.16517  1_556   S
    N4     O27       4.33089      .   S
    Zr19   O28       2.16649  1_655   S
    N0     O28       4.33293      .   S
    Zr19   O29       2.16378  1_565   S
    N3     O29       4.32803      .   S
    Zr19   O30       2.16561  1_665   S
    N5     O30       4.33141      .   S
    Zr19   O31       2.16609  1_566   S
    N1     O31       4.33129      .   S
