# CIF file generated by openbabel 2.4.90, see http://openbabel.sf.net
data_I
_chemical_name_common ''
_cell_length_a 18.795
_cell_length_b 18.726
_cell_length_c 18.724
_cell_angle_alpha 60.224
_cell_angle_beta 60.401
_cell_angle_gamma 60.366
_space_group_name_H-M_alt 'P 1'
_space_group_name_Hall 'P 1'
loop_
    _symmetry_equiv_pos_as_xyz
    x,y,z
loop_
    _atom_site_label
    _atom_site_type_symbol
    _atom_site_fract_x
    _atom_site_fract_y
    _atom_site_fract_z
    _atom_site_occupancy
    Zr0     Zr   0.54243   0.37108   0.54281   1.000
    Zr1     Zr   0.37210   0.54247   0.54249   1.000
    Zr2     Zr   0.54276   0.54347   0.54336   1.000
    Zr3     Zr   0.54249   0.54281   0.37111   1.000
    Zr4     Zr   0.12731   0.95767   0.95760   1.000
    Zr5     Zr   0.95762   0.12847   0.95721   1.000
    Zr6     Zr   0.95761   0.95724   0.12838   1.000
    Zr7     Zr   0.95728   0.95656   0.95666   1.000
    Zr8     Zr   0.99967   0.00002   0.99996   1.000
    Zr9     Zr   0.50017   0.49995   0.49990   1.000
    O10     O    0.52133   0.52138   0.43551   1.000
    O11     O    0.43613   0.52121   0.52119   1.000
    O12     O    0.97864   0.06424   0.97859   1.000
    O13     O    0.06349   0.97885   0.97878   1.000
    O14     O    0.97864   0.97863   0.06417   1.000
    O15     O    0.97847   0.97829   0.97831   1.000
    O16     O    0.52130   0.43552   0.52136   1.000
    O17     O    0.52146   0.52171   0.52163   1.000
    N18     N    0.24277   0.75715   0.75710   1.000
    O19     O    0.19680   0.83936   0.83931   1.000
    O20     O    0.36862   0.66832   0.66824   1.000
    O21     O    0.12416   0.83884   0.83885   1.000
    O22     O    0.29575   0.66784   0.66782   1.000
    N23     N    0.75718   0.24279   0.24276   1.000
    O24     O    0.83951   0.19747   0.12421   1.000
    O25     O    0.66776   0.36853   0.29516   1.000
    O26     O    0.83951   0.12427   0.19738   1.000
    O27     O    0.66768   0.29515   0.36854   1.000
    N28     N    0.24278   0.75719   0.24279   1.000
    O29     O    0.19692   0.83946   0.12442   1.000
    O30     O    0.36844   0.66800   0.29512   1.000
    O31     O    0.12437   0.83926   0.19748   1.000
    O32     O    0.29564   0.66780   0.36837   1.000
    N33     N    0.75714   0.24276   0.75711   1.000
    O34     O    0.83919   0.12395   0.83882   1.000
    O35     O    0.66777   0.29528   0.66803   1.000
    O36     O    0.83940   0.19730   0.83906   1.000
    O37     O    0.66792   0.36882   0.66830   1.000
    N38     N    0.75715   0.75714   0.24271   1.000
    O39     O    0.83938   0.83912   0.19723   1.000
    O40     O    0.66791   0.66839   0.36874   1.000
    O41     O    0.83923   0.83877   0.12394   1.000
    O42     O    0.66781   0.66803   0.29527   1.000
    N43     N    0.24278   0.24281   0.75718   1.000
    O44     O    0.19692   0.12446   0.83940   1.000
    O45     O    0.36842   0.29510   0.66794   1.000
    O46     O    0.12436   0.19754   0.83924   1.000
    O47     O    0.29564   0.36837   0.66781   1.000
loop_
    _geom_bond_atom_site_label_1
    _geom_bond_atom_site_label_2
    _geom_bond_distance
    _geom_bond_site_symmetry_2
    _ccdc_geom_bond_type
    Zr3    O10       0.98821      .   S
    Zr9    O10       0.98821      .   S
    Zr9    O11       0.98779      .   S
    Zr1    O11       0.98779      .   S
    Zr5    O12       0.98536      .   S
    Zr8    O12       0.98536      .   S
    Zr4    O13       0.98447      .   S
    Zr8    O13       0.98447  1_645   S
    Zr8    O14       0.98537  1_546   S
    Zr6    O14       0.98537      .   S
    Zr8    O15       0.98596  1_545   S
    Zr7    O15       0.98596      .   S
    Zr9    O16       0.98859      .   S
    Zr0    O16       0.98859      .   S
    Zr9    O17       0.98927      .   S
    Zr2    O17       0.98927      .   S
    N18    O19       2.28279      .   S
    Zr4    O19       3.26711      .   S
    N18    O20       2.46991      .   S
    Zr2    O20       3.45657      .   S
    N18    O21       2.28801      .   S
    Zr7    O21       3.27428  1_655   S
    N18    O22       2.46341      .   S
    Zr1    O22       3.44837      .   S
    N23    O24       2.28504      .   S
    Zr5    O24       3.27028  1_556   S
    N23    O25       2.46633      .   S
    Zr3    O25       3.45262      .   S
    N23    O26       2.28487      .   S
    Zr6    O26       3.27017  1_565   S
    N23    O27       2.46693      .   S
    Zr0    O27       3.45266      .   S
    N28    O29       2.28277      .   S
    Zr4    O29       3.26718  1_556   S
    N28    O30       2.46715      .   S
    Zr3    O30       3.45301      .   S
    N28    O31       2.28526      .   S
    Zr6    O31       3.27079  1_655   S
    N28    O32       2.46400      .   S
    Zr1    O32       3.44903      .   S
    N33    O34       2.28611      .   S
    Zr7    O34       3.27232  1_565   S
    N33    O35       2.46481      .   S
    Zr0    O35       3.45041      .   S
    N33    O36       2.28349      .   S
    Zr5    O36       3.26864      .   S
    N33    O37       2.46777      .   S
    Zr2    O37       3.45431      .   S
    N38    O39       2.28445      .   S
    Zr6    O39       3.26971      .   S
    N38    O40       2.46892      .   S
    Zr2    O40       3.45571      .   S
    N38    O41       2.28676      .   S
    Zr7    O41       3.27279  1_556   S
    N38    O42       2.46566      .   S
    Zr3    O42       3.45147      .   S
    N43    O44       2.28341      .   S
    Zr4    O44       3.26796  1_565   S
    N43    O45       2.46806      .   S
    Zr0    O45       3.45412      .   S
    N43    O46       2.28621      .   S
    Zr5    O46       3.27201  1_655   S
    N43    O47       2.46494      .   S
    Zr1    O47       3.45018      .   S
