# CIF file generated by openbabel 2.4.90, see http://openbabel.sf.net
data_I
_chemical_name_common ''
_cell_length_a 18.795
_cell_length_b 18.726
_cell_length_c 18.724
_cell_angle_alpha 60.224
_cell_angle_beta 60.401
_cell_angle_gamma 60.366
_space_group_name_H-M_alt 'P 1'
_space_group_name_Hall 'P 1'
loop_
    _symmetry_equiv_pos_as_xyz
    x,y,z
loop_
    _atom_site_label
    _atom_site_type_symbol
    _atom_site_fract_x
    _atom_site_fract_y
    _atom_site_fract_z
    _atom_site_occupancy
    C0      C    0.54243   0.37108   0.54281   1.000
    C1      C    0.37210   0.54247   0.54249   1.000
    C2      C    0.54276   0.54347   0.54336   1.000
    C3      C    0.54249   0.54281   0.37111   1.000
    C4      C    0.12731   0.95767   0.95760   1.000
    C5      C    0.95762   0.12847   0.95721   1.000
    C6      C    0.95761   0.95724   0.12838   1.000
    C7      C    0.95728   0.95656   0.95666   1.000
    C8      C    0.31865   0.08925   0.79602   1.000
    C9      C    0.09035   0.32046   0.79493   1.000
    C10     C    0.79590   0.79607   0.31944   1.000
    C11     C    0.79482   0.79421   0.08943   1.000
    C12     C    0.31816   0.79677   0.79660   1.000
    C13     C    0.09044   0.79376   0.79383   1.000
    C14     C    0.79565   0.32014   0.08937   1.000
    C15     C    0.79546   0.08930   0.31990   1.000
    C16     C    0.31862   0.79618   0.08928   1.000
    C17     C    0.09034   0.79479   0.32026   1.000
    C18     C    0.79499   0.08939   0.79422   1.000
    C19     C    0.79586   0.31942   0.79610   1.000
    C20     C    0.32455   0.22017   0.72741   1.000
    C21     C    0.28386   0.15900   0.77854   1.000
    C22     C    0.22109   0.32492   0.72693   1.000
    C23     C    0.15958   0.28484   0.77796   1.000
    C24     C    0.72739   0.72778   0.32489   1.000
    C25     C    0.77847   0.77856   0.28426   1.000
    C26     C    0.72691   0.72695   0.22072   1.000
    C27     C    0.77789   0.77756   0.15907   1.000
    C28     C    0.32459   0.72794   0.72786   1.000
    C29     C    0.28359   0.77894   0.77882   1.000
    C30     C    0.22137   0.72659   0.72663   1.000
    C31     C    0.15963   0.77732   0.77733   1.000
    C32     C    0.72703   0.32495   0.22045   1.000
    C33     C    0.77834   0.28466   0.15905   1.000
    C34     C    0.72692   0.22034   0.32493   1.000
    C35     C    0.77823   0.15902   0.28454   1.000
    C36     C    0.32470   0.72742   0.22013   1.000
    C37     C    0.28390   0.77860   0.15901   1.000
    C38     C    0.22103   0.72677   0.32502   1.000
    C39     C    0.15960   0.77784   0.28478   1.000
    C40     C    0.72689   0.22059   0.72686   1.000
    C41     C    0.77793   0.15906   0.77751   1.000
    C42     C    0.72728   0.32513   0.72771   1.000
    C43     C    0.77839   0.28433   0.77853   1.000
    C44     C    0.30836   0.30777   0.69162   1.000
    C45     C    0.19229   0.19275   0.80770   1.000
    C46     C    0.13597   0.13673   0.86404   1.000
    C47     C    0.36447   0.36368   0.63541   1.000
    C48     C    0.69162   0.69207   0.30800   1.000
    C49     C    0.80761   0.80727   0.19219   1.000
    C50     C    0.86400   0.86326   0.13583   1.000
    C51     C    0.63542   0.63621   0.36456   1.000
    C52     C    0.30870   0.69189   0.69188   1.000
    C53     C    0.19202   0.80741   0.80700   1.000
    C54     C    0.13552   0.86358   0.86350   1.000
    C55     C    0.36494   0.63588   0.63588   1.000
    C56     C    0.69130   0.30799   0.30808   1.000
    C57     C    0.80786   0.19258   0.19248   1.000
    C58     C    0.86445   0.13645   0.13628   1.000
    C59     C    0.63497   0.36397   0.36410   1.000
    C60     C    0.30833   0.69161   0.30777   1.000
    C61     C    0.19233   0.80766   0.19273   1.000
    C62     C    0.13600   0.86405   0.13666   1.000
    C63     C    0.36444   0.63544   0.36372   1.000
    C64     C    0.69164   0.30835   0.69207   1.000
    C65     C    0.80758   0.19225   0.80720   1.000
    C66     C    0.86397   0.13589   0.86320   1.000
    C67     C    0.63542   0.36454   0.63618   1.000
    C68     C    0.17481   0.05455   0.88565   1.000
    C69     C    0.44571   0.32370   0.61458   1.000
    C70     C    0.05427   0.17608   0.88538   1.000
    C71     C    0.32491   0.44540   0.61440   1.000
    C72     C    0.88561   0.88496   0.17514   1.000
    C73     C    0.61457   0.61580   0.44620   1.000
    C74     C    0.88536   0.88424   0.05366   1.000
    C75     C    0.61445   0.61503   0.32455   1.000
    C76     C    0.17435   0.88548   0.88546   1.000
    C77     C    0.44620   0.61549   0.61542   1.000
    C78     C    0.05381   0.88449   0.88453   1.000
    C79     C    0.32537   0.61458   0.61460   1.000
    C80     C    0.88605   0.17583   0.05411   1.000
    C81     C    0.61418   0.44571   0.32400   1.000
    C82     C    0.88609   0.05426   0.17560   1.000
    C83     C    0.61394   0.32394   0.44581   1.000
    C84     C    0.17482   0.88579   0.05451   1.000
    C85     C    0.44568   0.61480   0.32380   1.000
    C86     C    0.05431   0.88540   0.17597   1.000
    C87     C    0.32489   0.61436   0.44540   1.000
    C88     C    0.88522   0.05370   0.88440   1.000
    C89     C    0.61437   0.32453   0.61508   1.000
    C90     C    0.88571   0.17523   0.88480   1.000
    C91     C    0.61467   0.44627   0.61564   1.000
    C92     C    0.99967   0.00002   0.99996   1.000
    C93     C    0.50017   0.49995   0.49990   1.000
    O94     O    0.87468   0.87375   0.09474   1.000
    O95     O    0.92132   0.92040   0.00516   1.000
    O96     O    0.87525   0.15614   0.09520   1.000
    O97     O    0.92183   0.15215   0.00566   1.000
    O98     O    0.15541   0.87492   0.09559   1.000
    O99     O    0.15106   0.92173   0.00605   1.000
    O100    O    0.30126   0.78739   0.12415   1.000
    O101    O    0.78699   0.30240   0.12421   1.000
    O102    O    0.78636   0.78588   0.12425   1.000
    O103    O    0.92161   0.92110   0.15176   1.000
    O104    O    0.92185   0.00575   0.15199   1.000
    O105    O    0.00596   0.92132   0.15218   1.000
    O106    O    0.87481   0.87411   0.15549   1.000
    O107    O    0.83580   0.83526   0.16401   1.000
    O108    O    0.87527   0.09535   0.15594   1.000
    O109    O    0.83616   0.16451   0.16438   1.000
    O110    O    0.09516   0.87473   0.15631   1.000
    O111    O    0.16417   0.83586   0.16470   1.000
    O112    O    0.23811   0.79313   0.17587   1.000
    O113    O    0.30430   0.75301   0.18957   1.000
    O114    O    0.79310   0.23862   0.17577   1.000
    O115    O    0.75269   0.30481   0.18975   1.000
    O116    O    0.79275   0.79241   0.17563   1.000
    O117    O    0.75240   0.75225   0.18989   1.000
    O118    O    0.79304   0.79291   0.23823   1.000
    O119    O    0.79305   0.17580   0.23851   1.000
    O120    O    0.17596   0.79275   0.23875   1.000
    O121    O    0.31651   0.70952   0.26395   1.000
    O122    O    0.70917   0.31647   0.26427   1.000
    O123    O    0.70927   0.70951   0.26436   1.000
    O124    O    0.78718   0.78731   0.30185   1.000
    O125    O    0.75293   0.75317   0.30457   1.000
    O126    O    0.78685   0.12416   0.30222   1.000
    O127    O    0.75258   0.18968   0.30474   1.000
    O128    O    0.12497   0.78632   0.30252   1.000
    O129    O    0.19031   0.75231   0.30490   1.000
    O130    O    0.26468   0.70919   0.31639   1.000
    O131    O    0.33639   0.66353   0.33575   1.000
    O132    O    0.70950   0.70992   0.31644   1.000
    O133    O    0.66352   0.66414   0.33628   1.000
    O134    O    0.70911   0.26416   0.31650   1.000
    O135    O    0.66314   0.33598   0.33609   1.000
    O136    O    0.40506   0.62512   0.34376   1.000
    O137    O    0.49409   0.57881   0.34746   1.000
    O138    O    0.62458   0.40484   0.34405   1.000
    O139    O    0.57834   0.49426   0.34756   1.000
    O140    O    0.62494   0.62562   0.34456   1.000
    O141    O    0.57847   0.57892   0.34783   1.000
    O142    O    0.34466   0.62490   0.40456   1.000
    O143    O    0.62446   0.34395   0.40495   1.000
    O144    O    0.62500   0.62600   0.40538   1.000
    O145    O    0.52133   0.52138   0.43551   1.000
    O146    O    0.34849   0.57842   0.49395   1.000
    O147    O    0.57819   0.34751   0.49431   1.000
    O148    O    0.57867   0.57963   0.49478   1.000
    O149    O    0.43613   0.52121   0.52119   1.000
    O150    O    0.34850   0.49393   0.57844   1.000
    O151    O    0.34873   0.57852   0.57854   1.000
    O152    O    0.49407   0.34739   0.57870   1.000
    O153    O    0.57840   0.34780   0.57894   1.000
    O154    O    0.49448   0.57948   0.57939   1.000
    O155    O    0.57871   0.49487   0.57950   1.000
    O156    O    0.34469   0.40454   0.62490   1.000
    O157    O    0.40509   0.34369   0.62500   1.000
    O158    O    0.34516   0.62523   0.62524   1.000
    O159    O    0.62490   0.34453   0.62563   1.000
    O160    O    0.40557   0.62569   0.62565   1.000
    O161    O    0.62504   0.40540   0.62591   1.000
    O162    O    0.33641   0.33573   0.66352   1.000
    O163    O    0.33682   0.66388   0.66388   1.000
    O164    O    0.66353   0.33645   0.66412   1.000
    O165    O    0.26473   0.31635   0.70928   1.000
    O166    O    0.31645   0.26397   0.70952   1.000
    O167    O    0.26503   0.70924   0.70926   1.000
    O168    O    0.31665   0.70991   0.70987   1.000
    O169    O    0.70926   0.26447   0.70946   1.000
    O170    O    0.70946   0.31674   0.70989   1.000
    O171    O    0.19050   0.75196   0.75198   1.000
    O172    O    0.75241   0.18982   0.75218   1.000
    O173    O    0.19034   0.30488   0.75244   1.000
    O174    O    0.30420   0.18958   0.75297   1.000
    O175    O    0.75283   0.30473   0.75312   1.000
    O176    O    0.30409   0.75344   0.75334   1.000
    O177    O    0.12504   0.78554   0.78558   1.000
    O178    O    0.17583   0.79236   0.79217   1.000
    O179    O    0.78646   0.12422   0.78587   1.000
    O180    O    0.79275   0.17566   0.79236   1.000
    O181    O    0.12496   0.30265   0.78645   1.000
    O182    O    0.17594   0.23880   0.79283   1.000
    O183    O    0.78712   0.30187   0.78732   1.000
    O184    O    0.79299   0.23829   0.79287   1.000
    O185    O    0.30126   0.12412   0.78728   1.000
    O186    O    0.23808   0.17588   0.79312   1.000
    O187    O    0.30088   0.78785   0.78771   1.000
    O188    O    0.23781   0.79317   0.79291   1.000
    O189    O    0.16377   0.83549   0.83525   1.000
    O190    O    0.83578   0.16407   0.83520   1.000
    O191    O    0.16413   0.16474   0.83587   1.000
    O192    O    0.87460   0.09479   0.87380   1.000
    O193    O    0.87484   0.15556   0.87400   1.000
    O194    O    0.09467   0.87403   0.87401   1.000
    O195    O    0.15494   0.87453   0.87448   1.000
    O196    O    0.09512   0.15640   0.87471   1.000
    O197    O    0.15539   0.09564   0.87484   1.000
    O198    O    0.92125   0.00513   0.92053   1.000
    O199    O    0.00555   0.92053   0.92060   1.000
    O200    O    0.92166   0.15185   0.92101   1.000
    O201    O    0.00594   0.15227   0.92130   1.000
    O202    O    0.15083   0.92158   0.92153   1.000
    O203    O    0.15106   0.00611   0.92163   1.000
    O204    O    0.97864   0.06424   0.97859   1.000
    O205    O    0.06349   0.97885   0.97878   1.000
    O206    O    0.97864   0.97863   0.06417   1.000
    O207    O    0.97847   0.97829   0.97831   1.000
    O208    O    0.52130   0.43552   0.52136   1.000
    O209    O    0.52146   0.52171   0.52163   1.000
loop_
    _geom_bond_atom_site_label_1
    _geom_bond_atom_site_label_2
    _geom_bond_distance
    _geom_bond_site_symmetry_2
    _ccdc_geom_bond_type
    C74    O94       0.63798      .   S
    C50    O94       0.63798      .   S
    C74    O95       0.98768      .   S
    C7     O95       0.98768  1_556   S
    C80    O96       0.63795      .   S
    C58    O96       0.63795      .   S
    C80    O97       0.98685      .   S
    C5     O97       0.98685  1_556   S
    C84    O98       0.63781      .   S
    C62    O98       0.63781      .   S
    C84    O99       0.98591      .   S
    C4     O99       0.98591  1_556   S
    C16    O100      0.54377      .   S
    C37    O100      0.54377      .   S
    C14    O101      0.54381      .   S
    C33    O101      0.54381      .   S
    C11    O102      0.54386      .   S
    C27    O102      0.54386      .   S
    C6     O103      0.98657      .   S
    C72    O103      0.98657      .   S
    C6     O104      0.98683  1_565   S
    C82    O104      0.98683      .   S
    C6     O105      0.98722  1_655   S
    C86    O105      0.98722      .   S
    C50    O106      0.63791      .   S
    C72    O106      0.63791      .   S
    C50    O107      0.74691      .   S
    C49    O107      0.74691      .   S
    C58    O108      0.63792      .   S
    C82    O108      0.63792      .   S
    C58    O109      0.74674      .   S
    C57    O109      0.74674      .   S
    C62    O110      0.63795      .   S
    C86    O110      0.63795      .   S
    C62    O111      0.74657      .   S
    C61    O111      0.74657      .   S
    C37    O112      0.70678      .   S
    C61    O112      0.70678      .   S
    C37    O113      0.68319      .   S
    C36    O113      0.68319      .   S
    C33    O114      0.70679      .   S
    C57    O114      0.70679      .   S
    C33    O115      0.68327      .   S
    C32    O115      0.68327      .   S
    C27    O116      0.70677      .   S
    C49    O116      0.70677      .   S
    C27    O117      0.68332      .   S
    C26    O117      0.68332      .   S
    C49    O118      0.70690      .   S
    C25    O118      0.70690      .   S
    C57    O119      0.70679      .   S
    C35    O119      0.70679      .   S
    C61    O120      0.70662      .   S
    C39    O120      0.70662      .   S
    C36    O121      0.67999      .   S
    C60    O121      0.67999      .   S
    C32    O122      0.67987      .   S
    C56    O122      0.67987      .   S
    C26    O123      0.67726      .   S
    C48    O123      0.67726      .   S
    C25    O124      0.54377      .   S
    C10    O124      0.54377      .   S
    C25    O125      0.68329      .   S
    C24    O125      0.68329      .   S
    C35    O126      0.54381      .   S
    C15    O126      0.54381      .   S
    C35    O127      0.68328      .   S
    C34    O127      0.68328      .   S
    C39    O128      0.54382      .   S
    C17    O128      0.54382      .   S
    C39    O129      0.68321      .   S
    C38    O129      0.68321      .   S
    C60    O130      0.68002      .   S
    C38    O130      0.68002      .   S
    C60    O131      0.74427      .   S
    C63    O131      0.74427      .   S
    C48    O132      0.68255      .   S
    C24    O132      0.68255      .   S
    C48    O133      0.74480      .   S
    C51    O133      0.74480      .   S
    C56    O134      0.67994      .   S
    C34    O134      0.67994      .   S
    C56    O135      0.74459      .   S
    C59    O135      0.74459      .   S
    C85    O136      0.63552      .   S
    C63    O136      0.63552      .   S
    C85    O137      0.98658      .   S
    C3     O137      0.98658      .   S
    C81    O138      0.63562      .   S
    C59    O138      0.63562      .   S
    C81    O139      0.98695      .   S
    C3     O139      0.98695      .   S
    C75    O140      0.63540      .   S
    C51    O140      0.63540      .   S
    C75    O141      0.98630      .   S
    C3     O141      0.98630      .   S
    C63    O142      0.63539      .   S
    C87    O142      0.63539      .   S
    C59    O143      0.63550      .   S
    C83    O143      0.63550      .   S
    C51    O144      0.63491      .   S
    C73    O144      0.63491      .   S
    C3     O145      0.98821      .   S
    C93    O145      0.98821      .   S
    C87    O146      0.98563      .   S
    C1     O146      0.98563      .   S
    C83    O147      0.98642      .   S
    C0     O147      0.98642      .   S
    C73    O148      0.98749      .   S
    C2     O148      0.98749      .   S
    C93    O149      0.98779      .   S
    C1     O149      0.98779      .   S
    C1     O150      0.98583      .   S
    C71    O150      0.98583      .   S
    C1     O151      0.98542      .   S
    C79    O151      0.98542      .   S
    C0     O152      0.98682      .   S
    C69    O152      0.98682      .   S
    C0     O153      0.98610      .   S
    C89    O153      0.98610      .   S
    C2     O154      0.98754      .   S
    C77    O154      0.98754      .   S
    C2     O155      0.98724      .   S
    C91    O155      0.98724      .   S
    C71    O156      0.63539      .   S
    C47    O156      0.63539      .   S
    C69    O157      0.63549      .   S
    C47    O157      0.63549      .   S
    C79    O158      0.63544      .   S
    C55    O158      0.63544      .   S
    C89    O159      0.63552      .   S
    C67    O159      0.63552      .   S
    C77    O160      0.63557      .   S
    C55    O160      0.63557      .   S
    C91    O161      0.63553      .   S
    C67    O161      0.63553      .   S
    C47    O162      0.74447      .   S
    C44    O162      0.74447      .   S
    C55    O163      0.74462      .   S
    C52    O163      0.74462      .   S
    C67    O164      0.74460      .   S
    C64    O164      0.74460      .   S
    C44    O165      0.67990      .   S
    C22    O165      0.67990      .   S
    C44    O166      0.67986      .   S
    C20    O166      0.67986      .   S
    C52    O167      0.68000      .   S
    C30    O167      0.68000      .   S
    C52    O168      0.67987      .   S
    C28    O168      0.67987      .   S
    C64    O169      0.68021      .   S
    C40    O169      0.68021      .   S
    C64    O170      0.68016      .   S
    C42    O170      0.68016      .   S
    C30    O171      0.68326      .   S
    C31    O171      0.68326      .   S
    C40    O172      0.68324      .   S
    C41    O172      0.68324      .   S
    C22    O173      0.68324      .   S
    C23    O173      0.68324      .   S
    C20    O174      0.68323      .   S
    C21    O174      0.68323      .   S
    C42    O175      0.68323      .   S
    C43    O175      0.68323      .   S
    C28    O176      0.68324      .   S
    C29    O176      0.68324      .   S
    C31    O177      0.54383      .   S
    C13    O177      0.54383      .   S
    C31    O178      0.70378      .   S
    C53    O178      0.70378      .   S
    C41    O179      0.54384      .   S
    C18    O179      0.54384      .   S
    C41    O180      0.70673      .   S
    C65    O180      0.70673      .   S
    C23    O181      0.54381      .   S
    C9     O181      0.54381      .   S
    C23    O182      0.70673      .   S
    C45    O182      0.70673      .   S
    C43    O183      0.54368      .   S
    C19    O183      0.54368      .   S
    C43    O184      0.70682      .   S
    C65    O184      0.70682      .   S
    C21    O185      0.54379      .   S
    C8     O185      0.54379      .   S
    C21    O186      0.70684      .   S
    C45    O186      0.70684      .   S
    C29    O187      0.54381      .   S
    C12    O187      0.54381      .   S
    C29    O188      0.70705      .   S
    C53    O188      0.70705      .   S
    C53    O189      0.74898      .   S
    C54    O189      0.74898      .   S
    C65    O190      0.74650      .   S
    C66    O190      0.74650      .   S
    C45    O191      0.74663      .   S
    C46    O191      0.74663      .   S
    C66    O192      0.63788      .   S
    C88    O192      0.63788      .   S
    C66    O193      0.63834      .   S
    C90    O193      0.63834      .   S
    C54    O194      0.63796      .   S
    C78    O194      0.63796      .   S
    C54    O195      0.63831      .   S
    C76    O195      0.63831      .   S
    C46    O196      0.63795      .   S
    C70    O196      0.63795      .   S
    C46    O197      0.63784      .   S
    C68    O197      0.63784      .   S
    C88    O198      0.98781      .   S
    C7     O198      0.98781  1_565   S
    C78    O199      0.98813      .   S
    C7     O199      0.98813  1_655   S
    C90    O200      0.98647      .   S
    C5     O200      0.98647      .   S
    C70    O201      0.98750      .   S
    C5     O201      0.98750  1_655   S
    C76    O202      0.98560      .   S
    C4     O202      0.98560      .   S
    C68    O203      0.98605      .   S
    C4     O203      0.98605  1_565   S
    C5     O204      0.98536      .   S
    C92    O204      0.98536      .   S
    C4     O205      0.98447      .   S
    C92    O205      0.98447  1_645   S
    C92    O206      0.98537  1_546   S
    C6     O206      0.98537      .   S
    C92    O207      0.98596  1_545   S
    C7     O207      0.98596      .   S
    C93    O208      0.98859      .   S
    C0     O208      0.98859      .   S
    C93    O209      0.98927      .   S
    C2     O209      0.98927      .   S
