# CIF file generated by openbabel 2.4.90, see http://openbabel.sf.net
data_I
_chemical_name_common ''
_cell_length_a 10.063
_cell_length_b 17.5475
_cell_length_c 20.135
_cell_angle_alpha 76.8877
_cell_angle_beta 85.078
_cell_angle_gamma 76.9058
_space_group_name_H-M_alt 'P 1'
_space_group_name_Hall 'P 1'
loop_
    _symmetry_equiv_pos_as_xyz
    x,y,z
loop_
    _atom_site_label
    _atom_site_type_symbol
    _atom_site_fract_x
    _atom_site_fract_y
    _atom_site_fract_z
    _atom_site_occupancy
    Ca0     Ca   0.51059   0.95652   0.09346   1.000
    Ca1     Ca   0.81314   0.54382   0.74548   1.000
    Ca2     Ca   0.81316   0.54382   0.24547   1.000
    Ca3     Ca   0.48941   0.04351   0.90653   1.000
    Ca4     Ca   0.48943   0.04350   0.40651   1.000
    Ca5     Ca   0.18684   0.45620   0.75450   1.000
    Ca6     Ca   0.18686   0.45620   0.25449   1.000
    Ca7     Ca   0.57826   0.75028   0.71202   1.000
    Ca8     Ca   0.57828   0.75029   0.21202   1.000
    Ca9     Ca   0.42171   0.24973   0.78796   1.000
    Ca10    Ca   0.42173   0.24973   0.28795   1.000
    H11     H    0.87032   0.72301   0.68441   1.000
    H12     H    0.87033   0.72301   0.18440   1.000
    H13     H    0.01523   0.94181   0.61322   1.000
    H14     H    0.01525   0.94182   0.11321   1.000
    H15     H    0.29654   0.71731   0.68363   1.000
    H16     H    0.29655   0.71731   0.18362   1.000
    H17     H    0.62812   0.77678   0.56559   1.000
    H18     H    0.62813   0.77678   0.06558   1.000
    H19     H    0.77347   0.55797   0.49357   1.000
    H20     H    0.77348   0.55797   0.00000   1.000
    H21     H    0.63291   0.78220   0.85255   1.000
    H22     H    0.63294   0.78220   0.35253   1.000
    H23     H    0.12967   0.27701   0.81557   1.000
    H24     H    0.12969   0.27701   0.31556   1.000
    H25     H    0.98475   0.05820   0.88677   1.000
    H26     H    0.98477   0.05821   0.38677   1.000
    H27     H    0.70345   0.28271   0.81634   1.000
    H28     H    0.70347   0.28271   0.31633   1.000
    H29     H    0.37186   0.22323   0.93440   1.000
    H30     H    0.37187   0.22324   0.43439   1.000
    H31     H    0.22652   0.44206   0.00642   1.000
    Ca32    Ca   0.51057   0.95652   0.59347   1.000
    H33     H    0.22653   0.44206   0.50641   1.000
    H34     H    0.36706   0.21783   0.64744   1.000
    H35     H    0.36708   0.21783   0.14743   1.000
    C36     C    0.95307   0.75497   0.67472   1.000
    C37     C    0.95309   0.75497   0.17471   1.000
    C38     C    0.92641   0.83781   0.64865   1.000
    C39     C    0.92643   0.83781   0.14864   1.000
    C40     C    0.16871   0.83496   0.64855   1.000
    C41     C    0.16873   0.83496   0.14854   1.000
    C42     C    0.78320   0.88354   0.63527   1.000
    C43     C    0.78322   0.88354   0.13526   1.000
    C44     C    0.03492   0.87763   0.63459   1.000
    C45     C    0.03493   0.87763   0.13458   1.000
    C46     C    0.28446   0.87757   0.63587   1.000
    C47     C    0.28448   0.87757   0.13586   1.000
    C48     C    0.11712   0.62271   0.71355   1.000
    C49     C    0.11714   0.62271   0.21355   1.000
    C50     C    0.19335   0.75220   0.67420   1.000
    C51     C    0.19337   0.75221   0.17419   1.000
    C52     C    0.08637   0.71154   0.68702   1.000
    C53     C    0.08639   0.71154   0.18700   1.000
    C54     C    0.64849   0.74480   0.52426   1.000
    C55     C    0.64849   0.74480   0.02425   1.000
    C56     C    0.70120   0.66202   0.53774   1.000
    C57     C    0.70121   0.66202   0.03772   1.000
    C58     C    0.70309   0.66466   0.91662   1.000
    C59     C    0.70311   0.66466   0.41661   1.000
    C60     C    0.72793   0.61650   0.60939   1.000
    C61     C    0.72794   0.61650   0.10938   1.000
    C62     C    0.73031   0.62210   0.48358   1.000
    C63     C    0.73032   0.62210   0.00000   1.000
    C64     C    0.72980   0.62211   0.85874   1.000
    C65     C    0.72983   0.62211   0.35873   1.000
    C66     C    0.57125   0.87693   0.94195   1.000
    C67     C    0.57126   0.87693   0.44194   1.000
    C68     C    0.65124   0.74736   0.90418   1.000
    C69     C    0.65126   0.74736   0.40417   1.000
    C70     C    0.62449   0.78812   0.95756   1.000
    C71     C    0.62450   0.78812   0.45755   1.000
    C72     C    0.04691   0.24505   0.82526   1.000
    C73     C    0.04693   0.24504   0.32524   1.000
    C74     C    0.07357   0.16221   0.85133   1.000
    C75     C    0.07359   0.16221   0.35133   1.000
    C76     C    0.83127   0.16506   0.85143   1.000
    C77     C    0.83129   0.16506   0.35143   1.000
    C78     C    0.21678   0.11648   0.86472   1.000
    C79     C    0.21680   0.11647   0.36471   1.000
    C80     C    0.96507   0.12239   0.86540   1.000
    C81     C    0.96509   0.12239   0.36538   1.000
    C82     C    0.71553   0.12246   0.86411   1.000
    C83     C    0.71554   0.12246   0.36411   1.000
    C84     C    0.88286   0.37731   0.78642   1.000
    C85     C    0.88288   0.37731   0.28640   1.000
    C86     C    0.80663   0.24781   0.82577   1.000
    C87     C    0.80666   0.24781   0.32576   1.000
    C88     C    0.91362   0.28848   0.81296   1.000
    C89     C    0.91363   0.28848   0.31296   1.000
    C90     C    0.35147   0.25522   0.97573   1.000
    C91     C    0.35151   0.25522   0.47572   1.000
    C92     C    0.29881   0.33800   0.96225   1.000
    C93     C    0.29879   0.33800   0.46224   1.000
    C94     C    0.29689   0.33536   0.58337   1.000
    C95     C    0.29693   0.33537   0.08336   1.000
    C96     C    0.27203   0.38351   0.89060   1.000
    C97     C    0.27206   0.38352   0.39059   1.000
    C98     C    0.26965   0.37792   0.01641   1.000
    C99     C    0.26969   0.37792   0.51639   1.000
    C100    C    0.27018   0.37792   0.64125   1.000
    C101    C    0.27018   0.37792   0.14124   1.000
    C102    C    0.42874   0.12310   0.55805   1.000
    C103    C    0.42872   0.12310   0.05804   1.000
    C104    C    0.34874   0.25266   0.59581   1.000
    C105    C    0.34873   0.25266   0.09580   1.000
    C106    C    0.37549   0.21190   0.54243   1.000
    C107    C    0.37553   0.21191   0.04242   1.000
    O108    O    0.68388   0.84749   0.66109   1.000
    O109    O    0.68390   0.84749   0.16108   1.000
    O110    O    0.75783   0.95336   0.60007   1.000
    O111    O    0.75784   0.95336   0.10006   1.000
    O112    O    0.40245   0.83816   0.66051   1.000
    O113    O    0.40246   0.83815   0.16050   1.000
    O114    O    0.26929   0.94833   0.60258   1.000
    O115    O    0.26931   0.94833   0.10257   1.000
    O116    O    0.23978   0.58571   0.72240   1.000
    O117    O    0.23980   0.58572   0.22239   1.000
    O118    O    0.01707   0.58587   0.72665   1.000
    O119    O    0.01709   0.58587   0.22664   1.000
    O120    O    0.67734   0.65294   0.65891   1.000
    O121    O    0.67735   0.65294   0.15889   1.000
    O122    O    0.79762   0.54650   0.62222   1.000
    O123    O    0.79763   0.54651   0.12220   1.000
    O124    O    0.68210   0.66177   0.79948   1.000
    O125    O    0.68212   0.66177   0.29947   1.000
    O126    O    0.79586   0.55124   0.86649   1.000
    O127    O    0.79589   0.55125   0.36648   1.000
    O128    O    0.55293   0.91366   0.88060   1.000
    O129    O    0.55295   0.91366   0.38059   1.000
    O130    O    0.54580   0.91405   0.49174   1.000
    O131    O    0.54582   0.91405   0.00000   1.000
    O132    O    0.31611   0.15252   0.83890   1.000
    O133    O    0.31613   0.15252   0.33889   1.000
    O134    O    0.24216   0.04666   0.89992   1.000
    O135    O    0.24217   0.04666   0.39991   1.000
    O136    O    0.59754   0.16187   0.83947   1.000
    O137    O    0.59756   0.16187   0.33946   1.000
    O138    O    0.73069   0.05170   0.89742   1.000
    O139    O    0.73070   0.05170   0.39741   1.000
    O140    O    0.76020   0.41430   0.77758   1.000
    O141    O    0.76022   0.41431   0.27757   1.000
    O142    O    0.98291   0.41415   0.77332   1.000
    O143    O    0.98293   0.41415   0.27331   1.000
    O144    O    0.32260   0.34706   0.84109   1.000
    O145    O    0.32263   0.34706   0.34107   1.000
    O146    O    0.20239   0.45352   0.87777   1.000
    O147    O    0.20240   0.45352   0.37776   1.000
    O148    O    0.31789   0.33826   0.70051   1.000
    O149    O    0.31791   0.33826   0.20050   1.000
    O150    O    0.20411   0.44878   0.63349   1.000
    O151    O    0.20414   0.44878   0.13348   1.000
    O152    O    0.44705   0.08637   0.61940   1.000
    O153    O    0.44706   0.08637   0.11939   1.000
    O154    O    0.45419   0.08597   0.00825   1.000
    O155    O    0.45419   0.08597   0.50824   1.000
loop_
    _geom_bond_atom_site_label_1
    _geom_bond_atom_site_label_2
    _geom_bond_distance
    _geom_bond_site_symmetry_2
    _ccdc_geom_bond_type
    O131   Ca0       2.15039      .   S
    O131   C66       1.44045  1_554   S
    H20    C63       1.11074      .   S
    C63    C57       1.12408      .   S
    C63    C58       1.69371  1_554   S
    H31    C98       1.08927      .   S
    O154   C103      1.29285      .   S
    O154   Ca3       2.30751  1_554   S
    C98    C95       1.40140      .   S
    C98    C92       1.40143  1_554   S
    C55    C57       1.40063      .   S
    C55    H18       1.08634      .   S
    C55    C70       1.39589  1_554   S
    C57    C61       1.49608      .   S
    C107   C103      1.49751      .   S
    C107   C105      1.39687      .   S
    C107   C90       1.39586  1_554   S
    C103   O153      1.26463      .   S
    C95    C105      1.39835      .   S
    C95    C101      1.49598      .   S
    Ca0    O153      2.38655  1_565   S
    C105   H35       1.08716      .   S
    O111   C43       1.25053      .   S
    O115   C47       1.25240      .   S
    C61    O123      1.25052      .   S
    C61    O121      1.31034      .   S
    H14    C45       1.08924      .   S
    O151   C101      1.25209      .   S
    C45    C41       1.40181      .   S
    C45    C39       1.40126  1_455   S
    C43    C39       1.49595      .   S
    C43    O109      1.31049      .   S
    C47    C41       1.49585      .   S
    C47    O113      1.30668      .   S
    C101   O149      1.30725      .   S
    C41    C51       1.39844      .   S
    C39    C37       1.40064      .   S
    O121   Ca8       2.22035      .   S
    O109   Ca8       2.22075      .   S
    C51    H16       1.08727      .   S
    C51    C53       1.39702      .   S
    C37    H12       1.08641      .   S
    C37    C53       1.39630  1_655   S
    C53    C49       1.49756      .   S
    C49    O117      1.26445      .   S
    C49    O119      1.29351      .   S
    O117   Ca6       2.38529      .   S
    O119   Ca2       2.30765  1_455   S
    Ca2    O141      2.38528      .   S
    Ca6    O143      2.30764  1_455   S
    O143   C85       1.29349      .   S
    O141   C85       1.26447      .   S
    C85    C89       1.49756      .   S
    Ca10   O133      2.22075      .   S
    Ca10   O145      2.22031      .   S
    O125   C65       1.30724      .   S
    C89    C73       1.39631  1_655   S
    C89    C87       1.39702      .   S
    H24    C73       1.08643      .   S
    H28    C87       1.08727      .   S
    C73    C75       1.40064      .   S
    C87    C77       1.39844      .   S
    O133   C79       1.31049      .   S
    O137   C83       1.30666      .   S
    O145   C97       1.31035      .   S
    C75    C79       1.49598      .   S
    C75    C81       1.40126  1_455   S
    C77    C83       1.49581      .   S
    C77    C81       1.40179      .   S
    H22    C69       1.08718      .   S
    C65    O127      1.25208      .   S
    C65    C59       1.49595      .   S
    C83    O139      1.25240      .   S
    C79    O135      1.25050      .   S
    C81    H26       1.08924      .   S
    O147   C97       1.25052      .   S
    O129   Ca4       2.38644  1_565   S
    O129   C67       1.26464      .   S
    C97    C93       1.49605      .   S
    C69    C59       1.39838      .   S
    C69    C71       1.39686      .   S
    Ca4    O155      2.30756      .   S
    C59    C62       1.40179      .   S
    H30    C91       1.08633      .   S
    C67    C71       1.49753      .   S
    C67    O130      1.29326      .   S
    C71    C54       1.39628      .   S
    C93    C91       1.40062      .   S
    C93    C99       1.40140      .   S
    C91    C106      1.39627      .   S
    C62    H19       1.08926      .   S
    C62    C56       1.40141      .   S
    O130   Ca32      2.30757      .   S
    H33    C99       1.08927      .   S
    O155   C102      1.29325      .   S
    C99    C94       1.40180      .   S
    C54    C56       1.40063      .   S
    C54    H17       1.08633      .   S
    C56    C60       1.49605      .   S
    C106   C102      1.49751      .   S
    C106   C104      1.39687      .   S
    C102   O152      1.26463      .   S
    C94    C104      1.39835      .   S
    C94    C100      1.49596      .   S
    Ca32   O152      2.38648  1_565   S
    C104   H34       1.08717      .   S
    O110   C42       1.25051      .   S
    O114   C46       1.25240      .   S
    C60    O122      1.25053      .   S
    C60    O120      1.31034      .   S
    H13    C44       1.08924      .   S
    O150   C100      1.25209      .   S
    C44    C40       1.40180      .   S
    C44    C38       1.40126  1_455   S
    C42    C38       1.49597      .   S
    C42    O108      1.31049      .   S
    C46    C40       1.49589      .   S
    C46    O112      1.30668      .   S
    C100   O148      1.30724      .   S
    C40    C50       1.39846      .   S
    C38    C36       1.40063      .   S
    O120   Ca7       2.22033      .   S
    O108   Ca7       2.22076      .   S
    C50    H15       1.08727      .   S
    C50    C52       1.39703      .   S
    C36    H11       1.08643      .   S
    C36    C52       1.39629  1_655   S
    C52    C48       1.49756      .   S
    C48    O116      1.26447      .   S
    C48    O118      1.29349      .   S
    O116   Ca5       2.38527      .   S
    O118   Ca1       2.30767  1_455   S
    Ca1    O140      2.38529      .   S
    Ca5    O142      2.30762  1_455   S
    O142   C84       1.29349      .   S
    O140   C84       1.26445      .   S
    C84    C88       1.49758      .   S
    Ca9    O132      2.22074      .   S
    Ca9    O144      2.22032      .   S
    O124   C64       1.30724      .   S
    C88    C72       1.39630  1_655   S
    C88    C86       1.39703      .   S
    H23    C72       1.08643      .   S
    H27    C86       1.08727      .   S
    C72    C74       1.40066      .   S
    C86    C76       1.39846      .   S
    O132   C78       1.31049      .   S
    O136   C82       1.30667      .   S
    O144   C96       1.31033      .   S
    C74    C78       1.49599      .   S
    C74    C80       1.40124  1_455   S
    C76    C82       1.49578      .   S
    C76    C80       1.40179      .   S
    H21    C68       1.08717      .   S
    C64    O126      1.25210      .   S
    C64    C58       1.49597      .   S
    C82    O138      1.25240      .   S
    C78    O134      1.25049      .   S
    C80    H25       1.08926      .   S
    O146   C96       1.25051      .   S
    O128   Ca3       2.38649  1_565   S
    O128   C66       1.26463      .   S
    C96    C92       1.49607      .   S
    C68    C58       1.39836      .   S
    C68    C70       1.39687      .   S
    H29    C90       1.08634      .   S
    C66    C70       1.49752      .   S
    C92    C90       1.40062      .   S
    O108   Ca32      2.50382      .   S
    O109   Ca0       2.50384      .   S
    O110   Ca32      2.49048      .   S
    O111   Ca0       2.49045      .   S
    O112   Ca32      2.61142      .   S
    O112   Ca7       2.22192      .   S
    O113   Ca0       2.61144      .   S
    O113   Ca8       2.22191      .   S
    O114   Ca32      2.45340      .   S
    O115   Ca0       2.45340      .   S
    O118   Ca5       2.49696      .   S
    O119   Ca6       2.49696      .   S
    O120   Ca1       2.50627      .   S
    O121   Ca2       2.50632      .   S
    O122   Ca1       2.48935      .   S
    O123   Ca2       2.48938      .   S
    O124   Ca1       2.59674      .   S
    O124   Ca7       2.22358      .   S
    O125   Ca2       2.59671      .   S
    O125   Ca8       2.22357      .   S
    O126   Ca1       2.45864      .   S
    O127   Ca2       2.45862      .   S
    O130   Ca4       2.49830  1_565   S
    O131   Ca3       2.58530  1_564   S
    O132   Ca3       2.50381      .   S
    O133   Ca4       2.50374      .   S
    O134   Ca3       2.49052      .   S
    O135   Ca4       2.49050      .   S
    O136   Ca3       2.61162      .   S
    O136   Ca9       2.22191      .   S
    O137   Ca4       2.61159      .   S
    O137   Ca10      2.22191      .   S
    O138   Ca3       2.45338      .   S
    O139   Ca4       2.45336      .   S
    O142   Ca1       2.49693      .   S
    O143   Ca2       2.49693      .   S
    O144   Ca5       2.50635      .   S
    O145   Ca6       2.50634      .   S
    O146   Ca5       2.48940      .   S
    O147   Ca6       2.48936      .   S
    O148   Ca5       2.59659      .   S
    O148   Ca9       2.22358      .   S
    O149   Ca6       2.59662      .   S
    O149   Ca10      2.22360      .   S
    O150   Ca5       2.45861      .   S
    O151   Ca6       2.45861      .   S
    O154   Ca0       2.49804  1_545   S
    O155   Ca32      2.49829  1_545   S
