# CIF file generated by openbabel 2.4.90, see http://openbabel.sf.net
data_I
_chemical_name_common ''
_cell_length_a 10.063
_cell_length_b 17.5475
_cell_length_c 20.135
_cell_angle_alpha 76.8877
_cell_angle_beta 85.078
_cell_angle_gamma 76.9058
_space_group_name_H-M_alt 'P 1'
_space_group_name_Hall 'P 1'
loop_
    _symmetry_equiv_pos_as_xyz
    x,y,z
loop_
    _atom_site_label
    _atom_site_type_symbol
    _atom_site_fract_x
    _atom_site_fract_y
    _atom_site_fract_z
    _atom_site_occupancy
    N0      N    0.67634   0.70565   0.47028   1.000
    N1      N    0.32366   0.29437   0.52970   1.000
    N2      N    0.06113   0.79411   0.16149   1.000
    N3      N    0.67634   0.70565   0.97201   1.000
    N4      N    0.93889   0.20591   0.33847   1.000
    N5      N    0.93887   0.20591   0.83848   1.000
    N6      N    0.06111   0.79411   0.66150   1.000
    N7      N    0.32366   0.29437   0.02970   1.000
    Zr8     Zr   0.18684   0.45620   0.75450   1.000
    O9      O    0.09935   0.38837   0.77785   1.000
    O10     O    0.22298   0.41541   0.83871   1.000
    O11     O    0.16202   0.55687   0.72724   1.000
    O12     O    0.23801   0.40210   0.83412   1.000
    O13     O    0.23742   0.40100   0.69155   1.000
    O14     O    0.22320   0.41482   0.68318   1.000
    O15     O    0.13418   0.55689   0.72777   1.000
    Zr16    Zr   0.51057   0.95652   0.59347   1.000
    O17     O    0.36805   0.91489   0.61162   1.000
    O18     O    0.67912   0.91552   0.61130   1.000
    O19     O    0.45590   0.05721   0.58077   1.000
    O20     O    0.45680   0.05716   0.56687   1.000
    O21     O    0.66987   0.90229   0.61893   1.000
    O22     O    0.55642   0.88849   0.54996   1.000
    O23     O    0.38469   0.90112   0.61886   1.000
    Zr24    Zr   0.18686   0.45620   0.25449   1.000
    O25     O    0.23744   0.40100   0.19154   1.000
    O26     O    0.22322   0.41482   0.18317   1.000
    O27     O    0.16204   0.55687   0.22723   1.000
    O28     O    0.13421   0.55689   0.22776   1.000
    O29     O    0.09938   0.38837   0.27784   1.000
    O30     O    0.22300   0.41541   0.33870   1.000
    O31     O    0.23803   0.40210   0.33412   1.000
    Zr32    Zr   0.48941   0.04351   0.90653   1.000
    O33     O    0.32087   0.08450   0.88869   1.000
    O34     O    0.61529   0.09890   0.88113   1.000
    O35     O    0.54408   0.94281   0.91966   1.000
    O36     O    0.33011   0.09773   0.88106   1.000
    O37     O    0.44357   0.11153   0.95003   1.000
    O38     O    0.54319   0.94286   0.93458   1.000
    O39     O    0.63194   0.08513   0.88838   1.000
    Zr40    Zr   0.42173   0.24973   0.28795   1.000
    O41     O    0.28782   0.22663   0.30695   1.000
    O42     O    0.38482   0.27306   0.35503   1.000
    O43     O    0.57300   0.22779   0.30702   1.000
    O44     O    0.38423   0.27196   0.21245   1.000
    Zr45    Zr   0.81316   0.54382   0.24547   1.000
    O46     O    0.83798   0.44315   0.27273   1.000
    O47     O    0.86581   0.44313   0.27220   1.000
    O48     O    0.76198   0.59792   0.16628   1.000
    O49     O    0.77701   0.58461   0.16170   1.000
    O50     O    0.77680   0.58521   0.31680   1.000
    O51     O    0.90064   0.61165   0.22212   1.000
    O52     O    0.76258   0.59902   0.30842   1.000
    Zr53    Zr   0.81314   0.54382   0.74548   1.000
    O54     O    0.83795   0.44315   0.77274   1.000
    O55     O    0.86579   0.44313   0.77221   1.000
    O56     O    0.90062   0.61165   0.72213   1.000
    O57     O    0.76196   0.59792   0.66586   1.000
    O58     O    0.77678   0.58520   0.81724   1.000
    O59     O    0.76256   0.59902   0.80886   1.000
    O60     O    0.77700   0.58461   0.66127   1.000
    Zr61    Zr   0.51059   0.95652   0.09346   1.000
    O62     O    0.45591   0.05721   0.08076   1.000
    O63     O    0.45680   0.05716   0.06687   1.000
    O64     O    0.36806   0.91489   0.11161   1.000
    O65     O    0.38471   0.90112   0.11885   1.000
    O66     O    0.67913   0.91552   0.11129   1.000
    O67     O    0.55643   0.88849   0.05141   1.000
    O68     O    0.66989   0.90229   0.11892   1.000
    Zr69    Zr   0.57826   0.75028   0.71202   1.000
    O70     O    0.42700   0.77222   0.69295   1.000
    O71     O    0.71218   0.77339   0.69303   1.000
    O72     O    0.61517   0.72696   0.64495   1.000
    O73     O    0.61576   0.72806   0.78795   1.000
    Zr74    Zr   0.48943   0.04351   0.40651   1.000
    O75     O    0.33013   0.09773   0.38105   1.000
    O76     O    0.61531   0.09890   0.38112   1.000
    O77     O    0.63195   0.08513   0.38836   1.000
    O78     O    0.32089   0.08450   0.38868   1.000
    O79     O    0.44358   0.11153   0.45002   1.000
    O80     O    0.54410   0.94281   0.41921   1.000
    O81     O    0.54320   0.94286   0.43311   1.000
    Zr82    Zr   0.42171   0.24973   0.78796   1.000
    O83     O    0.38481   0.27306   0.85503   1.000
    O84     O    0.28780   0.22662   0.80696   1.000
    O85     O    0.38422   0.27196   0.71246   1.000
    O86     O    0.57298   0.22779   0.80703   1.000
    Zr87    Zr   0.57828   0.75029   0.21202   1.000
    O88     O    0.42702   0.77223   0.19294   1.000
    O89     O    0.61518   0.72696   0.14537   1.000
    O90     O    0.71220   0.77339   0.19302   1.000
    O91     O    0.61578   0.72806   0.28751   1.000
loop_
    _geom_bond_atom_site_label_1
    _geom_bond_atom_site_label_2
    _geom_bond_distance
    _geom_bond_site_symmetry_2
    _ccdc_geom_bond_type
    Zr8    O9        1.60078      .   S
    N5     O9        3.81844  1_655   S
    Zr8    O10       1.71949      .   S
    N7     O10       4.03895  1_554   S
    Zr8    O11       1.69344      .   S
    N6     O11       3.99112      .   S
    Zr8    O12       1.72227      .   S
    N7     O12       4.03605  1_554   S
    Zr8    O13       1.73978      .   S
    N1     O13       4.05220      .   S
    Zr8    O14       1.72815      .   S
    N1     O14       4.06175      .   S
    Zr8    O15       1.69862      .   S
    N6     O15       3.98878      .   S
    Zr16   O17       1.72849      .   S
    N6     O17       4.06310      .   S
    Zr16   O18       1.71972      .   S
    N6     O18       4.03930  1_455   S
    Zr16   O19       1.69374  1_565   S
    N1     O19       3.99131      .   S
    Zr16   O20       1.69888  1_565   S
    N1     O20       3.98904      .   S
    Zr16   O21       1.72235      .   S
    N6     O21       4.03645  1_455   S
    Zr16   O22       1.60031      .   S
    N0     O22       3.81747      .   S
    Zr16   O23       1.74133      .   S
    N6     O23       4.05279      .   S
    Zr24   O25       1.73974      .   S
    N7     O25       4.05206      .   S
    Zr24   O26       1.72810      .   S
    N7     O26       4.06162      .   S
    Zr24   O27       1.69344      .   S
    N2     O27       3.99111      .   S
    Zr24   O28       1.69862      .   S
    N2     O28       3.98877      .   S
    Zr24   O29       1.60079      .   S
    N4     O29       3.81847  1_655   S
    Zr24   O30       1.71952      .   S
    N1     O30       4.03905      .   S
    Zr24   O31       1.72230      .   S
    N1     O31       4.03616      .   S
    Zr32   O33       1.71974      .   S
    N5     O33       4.03934  1_655   S
    Zr32   O34       1.74134      .   S
    N5     O34       4.05275      .   S
    Zr32   O35       1.69328  1_545   S
    N3     O35       3.99272      .   S
    Zr32   O36       1.72237      .   S
    N5     O36       4.03649  1_655   S
    Zr32   O37       1.60022      .   S
    N7     O37       3.81726  1_554   S
    Zr32   O38       1.70228  1_545   S
    N3     O38       3.98898      .   S
    Zr32   O39       1.72849      .   S
    N5     O39       4.06306      .   S
    Zr40   O41       1.48841      .   S
    N4     O41       3.59935  1_655   S
    Zr40   O42       1.49182      .   S
    N1     O42       3.60682      .   S
    Zr40   O43       1.54289      .   S
    N4     O43       3.70872      .   S
    Zr40   O44       1.53878      .   S
    N7     O44       3.69958      .   S
    Zr45   O46       1.69344      .   S
    N4     O46       3.99112      .   S
    Zr45   O47       1.69862      .   S
    N4     O47       3.98878      .   S
    Zr45   O48       1.71501      .   S
    N3     O48       4.01283  1_556   S
    Zr45   O49       1.71154      .   S
    N3     O49       4.01660  1_556   S
    Zr45   O50       1.72818      .   S
    N0     O50       4.06182      .   S
    Zr45   O51       1.60080      .   S
    N2     O51       3.81847  1_455   S
    Zr45   O52       1.73982      .   S
    N0     O52       4.05226      .   S
    Zr53   O54       1.69344      .   S
    N5     O54       3.99111      .   S
    Zr53   O55       1.69862      .   S
    N5     O55       3.98877      .   S
    Zr53   O56       1.60081      .   S
    N6     O56       3.81849  1_455   S
    Zr53   O57       1.72227      .   S
    N0     O57       4.03612      .   S
    Zr53   O58       1.73604      .   S
    N3     O58       4.08410      .   S
    Zr53   O59       1.74701      .   S
    N3     O59       4.07540      .   S
    Zr53   O60       1.71950      .   S
    N0     O60       4.03901      .   S
    Zr61   O62       1.69376  1_565   S
    N7     O62       3.99132      .   S
    Zr61   O63       1.69887  1_565   S
    N7     O63       3.98907      .   S
    Zr61   O64       1.72849      .   S
    N2     O64       4.06308      .   S
    Zr61   O65       1.74133      .   S
    N2     O65       4.05277      .   S
    Zr61   O66       1.71973      .   S
    N2     O66       4.03932  1_455   S
    Zr61   O67       1.57997      .   S
    N3     O67       3.81423  1_556   S
    Zr61   O68       1.72236      .   S
    N2     O68       4.03647  1_455   S
    Zr69   O70       1.54286      .   S
    N6     O70       3.70867      .   S
    Zr69   O71       1.48845      .   S
    N6     O71       3.59941  1_455   S
    Zr69   O72       1.49177      .   S
    N0     O72       3.60672      .   S
    Zr69   O73       1.54711      .   S
    N3     O73       3.72539      .   S
    Zr74   O75       1.72235      .   S
    N4     O75       4.03647  1_655   S
    Zr74   O76       1.74135      .   S
    N4     O76       4.05277      .   S
    Zr74   O77       1.72849      .   S
    N4     O77       4.06308      .   S
    Zr74   O78       1.71972      .   S
    N4     O78       4.03931  1_655   S
    Zr74   O79       1.60028      .   S
    N1     O79       3.81740      .   S
    Zr74   O80       1.69375  1_545   S
    N0     O80       3.99134      .   S
    Zr74   O81       1.69888  1_545   S
    N0     O81       3.98907      .   S
    Zr82   O83       1.49177      .   S
    N7     O83       3.60666  1_554   S
    Zr82   O84       1.48840      .   S
    N5     O84       3.59934  1_655   S
    Zr82   O85       1.53881      .   S
    N1     O85       3.69970      .   S
    Zr82   O86       1.54289      .   S
    N5     O86       3.70873      .   S
    Zr87   O88       1.54286      .   S
    N2     O88       3.70868      .   S
    Zr87   O89       1.48349      .   S
    N3     O89       3.58088  1_556   S
    Zr87   O90       1.48844      .   S
    N2     O90       3.59941  1_455   S
    Zr87   O91       1.53884      .   S
    N0     O91       3.69976      .   S
