# CIF file generated by openbabel 2.4.90, see http://openbabel.sf.net
data_I
_chemical_name_common ''
_cell_length_a 10.063
_cell_length_b 17.5475
_cell_length_c 20.135
_cell_angle_alpha 76.8877
_cell_angle_beta 85.078
_cell_angle_gamma 76.9058
_space_group_name_H-M_alt 'P 1'
_space_group_name_Hall 'P 1'
loop_
    _symmetry_equiv_pos_as_xyz
    x,y,z
loop_
    _atom_site_label
    _atom_site_type_symbol
    _atom_site_fract_x
    _atom_site_fract_y
    _atom_site_fract_z
    _atom_site_occupancy
    Zr0     Zr   0.51057   0.95652   0.59347   1.000
    Zr1     Zr   0.51059   0.95652   0.09346   1.000
    Zr2     Zr   0.81314   0.54382   0.74548   1.000
    Zr3     Zr   0.81316   0.54382   0.24547   1.000
    Zr4     Zr   0.48941   0.04351   0.90653   1.000
    Zr5     Zr   0.48943   0.04350   0.40651   1.000
    Zr6     Zr   0.18684   0.45620   0.75450   1.000
    Zr7     Zr   0.18686   0.45620   0.25449   1.000
    Zr8     Zr   0.57826   0.75028   0.71202   1.000
    Zr9     Zr   0.57828   0.75029   0.21202   1.000
    Zr10    Zr   0.42171   0.24973   0.78796   1.000
    Zr11    Zr   0.42173   0.24973   0.28795   1.000
    N12     N    0.67634   0.70565   0.47028   1.000
    O13     O    0.65207   0.70363   0.57787   1.000
    O14     O    0.71079   0.65202   0.58624   1.000
    O15     O    0.74043   0.62659   0.38813   1.000
    O16     O    0.59877   0.84212   0.43191   1.000
    O17     O    0.60226   0.82047   0.50644   1.000
    O18     O    0.59698   0.84221   0.45970   1.000
    O19     O    0.74086   0.62541   0.57706   1.000
    O20     O    0.71199   0.65422   0.37137   1.000
    O21     O    0.65327   0.70584   0.36301   1.000
    N22     N    0.32366   0.29437   0.52970   1.000
    O23     O    0.34792   0.29638   0.42210   1.000
    O24     O    0.28920   0.34800   0.41374   1.000
    O25     O    0.25914   0.37461   0.42291   1.000
    O26     O    0.39773   0.17955   0.49354   1.000
    O27     O    0.40302   0.15781   0.54028   1.000
    O28     O    0.28801   0.34580   0.62860   1.000
    O29     O    0.34673   0.29418   0.63697   1.000
    O30     O    0.25957   0.37343   0.61185   1.000
    O31     O    0.40123   0.15791   0.56807   1.000
    N32     N    0.06113   0.79411   0.16149   1.000
    O33     O    0.84611   0.79650   0.17402   1.000
    O34     O    0.82919   0.84806   0.14438   1.000
    O35     O    0.98813   0.67948   0.19877   1.000
    O36     O    0.08155   0.65757   0.20103   1.000
    O37     O    0.22554   0.87327   0.12975   1.000
    O38     O    0.13723   0.65753   0.19997   1.000
    O39     O    0.84767   0.87452   0.12912   1.000
    O40     O    0.25883   0.84572   0.14423   1.000
    O41     O    0.27575   0.79417   0.17387   1.000
    N42     N    0.67634   0.70565   0.97201   1.000
    O43     O    0.65208   0.70363   0.07873   1.000
    O44     O    0.71080   0.65202   0.08710   1.000
    O45     O    0.60227   0.82047   0.00937   1.000
    O46     O    0.59698   0.84221   0.96264   1.000
    O47     O    0.74087   0.62541   0.07792   1.000
    O48     O    0.71198   0.65422   0.87224   1.000
    O49     O    0.65326   0.70584   0.86388   1.000
    O50     O    0.74042   0.62659   0.88900   1.000
    O51     O    0.59875   0.84212   0.93279   1.000
    N52     N    0.93889   0.20591   0.33847   1.000
    O53     O    0.15391   0.20352   0.32595   1.000
    O54     O    0.17083   0.15196   0.35559   1.000
    O55     O    0.15235   0.12550   0.37084   1.000
    O56     O    0.72427   0.20586   0.32609   1.000
    O57     O    0.74119   0.15430   0.35573   1.000
    O58     O    0.01189   0.32054   0.30119   1.000
    O59     O    0.91847   0.34245   0.29893   1.000
    O60     O    0.77448   0.12676   0.37022   1.000
    O61     O    0.86279   0.34249   0.30000   1.000
    N62     N    0.93887   0.20591   0.83848   1.000
    O63     O    0.15233   0.12550   0.87085   1.000
    O64     O    0.74118   0.15430   0.85574   1.000
    O65     O    0.72425   0.20586   0.82610   1.000
    O66     O    0.77446   0.12676   0.87023   1.000
    O67     O    0.86277   0.34249   0.80001   1.000
    O68     O    0.91845   0.34245   0.79894   1.000
    O69     O    0.01187   0.32054   0.80120   1.000
    O70     O    0.15389   0.20352   0.82596   1.000
    O71     O    0.17082   0.15196   0.85560   1.000
    N72     N    0.06111   0.79411   0.66150   1.000
    O73     O    0.84609   0.79650   0.67403   1.000
    O74     O    0.82917   0.84806   0.64439   1.000
    O75     O    0.08153   0.65757   0.70104   1.000
    O76     O    0.98811   0.67948   0.69878   1.000
    O77     O    0.22552   0.87327   0.62976   1.000
    O78     O    0.13721   0.65753   0.69998   1.000
    O79     O    0.84766   0.87452   0.62913   1.000
    O80     O    0.25881   0.84572   0.64424   1.000
    O81     O    0.27573   0.79416   0.67388   1.000
    N82     N    0.32366   0.29437   0.02970   1.000
    O83     O    0.34790   0.29638   0.92211   1.000
    O84     O    0.28919   0.34800   0.91375   1.000
    O85     O    0.25913   0.37461   0.92292   1.000
    O86     O    0.39773   0.17955   0.99354   1.000
    O87     O    0.40302   0.15781   0.04028   1.000
    O88     O    0.28802   0.34580   0.12860   1.000
    O89     O    0.34674   0.29418   0.13696   1.000
    O90     O    0.25958   0.37343   0.11184   1.000
    O91     O    0.40124   0.15791   0.06806   1.000
loop_
    _geom_bond_atom_site_label_1
    _geom_bond_atom_site_label_2
    _geom_bond_distance
    _geom_bond_site_symmetry_2
    _ccdc_geom_bond_type
    N12    O13       2.15230      .   S
    Zr8    O13       2.98353      .   S
    N12    O14       2.33479      .   S
    Zr2    O14       3.44454      .   S
    N12    O15       2.35148      .   S
    Zr3    O15       3.45636      .   S
    N12    O16       2.31464      .   S
    Zr5    O16       3.38750  1_545   S
    N12    O17       2.24435      .   S
    Zr0    O17       3.20062      .   S
    N12    O18       2.31434      .   S
    Zr5    O18       3.39777  1_545   S
    N12    O19       2.34068      .   S
    Zr2    O19       3.43900      .   S
    N12    O20       2.33563      .   S
    Zr3    O20       3.47965      .   S
    N12    O21       2.19121      .   S
    Zr9    O21       3.07769      .   S
    N22    O23       2.15233      .   S
    Zr11   O23       2.98363      .   S
    N22    O24       2.33479      .   S
    Zr7    O24       3.44459      .   S
    N22    O25       2.34070      .   S
    Zr7    O25       3.43904      .   S
    N22    O26       2.24431      .   S
    Zr5    O26       3.20057      .   S
    N22    O27       2.31431      .   S
    Zr0    O27       3.39775  1_565   S
    N22    O28       2.33561      .   S
    Zr6    O28       3.47956      .   S
    N22    O29       2.19119      .   S
    Zr10   O29       3.07762      .   S
    N22    O30       2.35144      .   S
    Zr6    O30       3.45629      .   S
    N22    O31       2.31462      .   S
    Zr0    O31       3.38749  1_565   S
    N32    O33       2.14877  1_455   S
    Zr9    O33       2.97688      .   S
    N32    O34       2.33483  1_455   S
    Zr1    O34       3.44472      .   S
    N32    O35       2.24480  1_455   S
    Zr3    O35       3.20159      .   S
    N32    O36       2.31426      .   S
    Zr7    O36       3.39725      .   S
    N32    O37       2.35202      .   S
    Zr1    O37       3.45698      .   S
    N32    O38       2.31474      .   S
    Zr7    O38       3.38687      .   S
    N32    O39       2.34080  1_455   S
    Zr1    O39       3.43945      .   S
    N32    O40       2.33534      .   S
    Zr1    O40       3.48266      .   S
    N32    O41       2.19547      .   S
    Zr9    O41       3.08572      .   S
    N42    O43       2.13490  1_556   S
    Zr9    O43       2.96699      .   S
    N42    O44       2.31865  1_556   S
    Zr3    O44       3.43002      .   S
    N42    O45       2.25647  1_556   S
    Zr1    O45       3.15994      .   S
    N42    O46       2.31721      .   S
    Zr4    O46       3.40455  1_545   S
    N42    O47       2.32659  1_556   S
    Zr3    O47       3.42309      .   S
    N42    O48       2.35169      .   S
    Zr2    O48       3.49402      .   S
    N42    O49       2.20846      .   S
    Zr8    O49       3.09422      .   S
    N42    O50       2.36558      .   S
    Zr2    O50       3.47209      .   S
    N42    O51       2.31692      .   S
    Zr4    O51       3.38656  1_545   S
    N52    O53       2.14875  1_655   S
    Zr11   O53       2.97682      .   S
    N52    O54       2.33484  1_655   S
    Zr5    O54       3.44470      .   S
    N52    O55       2.34080  1_655   S
    Zr5    O55       3.43945      .   S
    N52    O56       2.19548      .   S
    Zr11   O56       3.08578      .   S
    N52    O57       2.33532      .   S
    Zr5    O57       3.48269      .   S
    N52    O58       2.24481  1_655   S
    Zr7    O58       3.20159      .   S
    N52    O59       2.31427      .   S
    Zr3    O59       3.39724      .   S
    N52    O60       2.35201      .   S
    Zr5    O60       3.45699      .   S
    N52    O61       2.31474      .   S
    Zr3    O61       3.38688      .   S
    N62    O63       2.34081  1_655   S
    Zr4    O63       3.43947      .   S
    N62    O64       2.33531      .   S
    Zr4    O64       3.48269      .   S
    N62    O65       2.19548      .   S
    Zr10   O65       3.08579      .   S
    N62    O66       2.35200      .   S
    Zr4    O66       3.45698      .   S
    N62    O67       2.31473      .   S
    Zr2    O67       3.38687      .   S
    N62    O68       2.31426      .   S
    Zr2    O68       3.39724      .   S
    N62    O69       2.24480  1_655   S
    Zr6    O69       3.20156      .   S
    N62    O70       2.14874  1_655   S
    Zr10   O70       2.97681      .   S
    N62    O71       2.33485  1_655   S
    Zr4    O71       3.44473      .   S
    N72    O73       2.14877  1_455   S
    Zr8    O73       2.97689      .   S
    N72    O74       2.33483  1_455   S
    Zr0    O74       3.44470      .   S
    N72    O75       2.31426      .   S
    Zr6    O75       3.39725      .   S
    N72    O76       2.24481  1_455   S
    Zr2    O76       3.20162      .   S
    N72    O77       2.35203      .   S
    Zr0    O77       3.45699      .   S
    N72    O78       2.31474      .   S
    Zr6    O78       3.38687      .   S
    N72    O79       2.34079  1_455   S
    Zr0    O79       3.43944      .   S
    N72    O80       2.33536      .   S
    Zr0    O80       3.48267      .   S
    N72    O81       2.19547      .   S
    Zr8    O81       3.08571      .   S
    N82    O83       2.15222  1_554   S
    Zr10   O83       2.98353      .   S
    N82    O84       2.33471  1_554   S
    Zr6    O84       3.44454      .   S
    N82    O85       2.34064  1_554   S
    Zr6    O85       3.43898      .   S
    N82    O86       2.24424  1_554   S
    Zr4    O86       3.20045      .   S
    N82    O87       2.31432      .   S
    Zr1    O87       3.39775  1_565   S
    N82    O88       2.33551      .   S
    Zr7    O88       3.47948      .   S
    N82    O89       2.19110      .   S
    Zr11   O89       3.07757      .   S
    N82    O90       2.35136      .   S
    Zr7    O90       3.45620      .   S
    N82    O91       2.31461      .   S
    Zr1    O91       3.38752  1_565   S
