# CIF file generated by openbabel 2.4.90, see http://openbabel.sf.net
data_I
_chemical_name_common ''
_cell_length_a 10.063
_cell_length_b 17.5475
_cell_length_c 20.135
_cell_angle_alpha 76.8877
_cell_angle_beta 85.078
_cell_angle_gamma 76.9058
_space_group_name_H-M_alt 'P 1'
_space_group_name_Hall 'P 1'
loop_
    _symmetry_equiv_pos_as_xyz
    x,y,z
loop_
    _atom_site_label
    _atom_site_type_symbol
    _atom_site_fract_x
    _atom_site_fract_y
    _atom_site_fract_z
    _atom_site_occupancy
    C0      C    0.51057   0.95652   0.59347   1.000
    C1      C    0.51059   0.95652   0.09346   1.000
    C2      C    0.81314   0.54382   0.74548   1.000
    C3      C    0.81316   0.54382   0.24547   1.000
    C4      C    0.48941   0.04351   0.90653   1.000
    C5      C    0.48943   0.04350   0.40651   1.000
    C6      C    0.18684   0.45620   0.75450   1.000
    C7      C    0.18686   0.45620   0.25449   1.000
    C8      C    0.57826   0.75028   0.71202   1.000
    C9      C    0.57828   0.75029   0.21202   1.000
    C10     C    0.42171   0.24973   0.78796   1.000
    C11     C    0.42173   0.24973   0.28795   1.000
    C12     C    0.87032   0.72301   0.68441   1.000
    C13     C    0.87033   0.72301   0.18440   1.000
    C14     C    0.01523   0.94181   0.61322   1.000
    C15     C    0.01525   0.94182   0.11321   1.000
    C16     C    0.29654   0.71731   0.68363   1.000
    C17     C    0.29655   0.71731   0.18362   1.000
    C18     C    0.62812   0.77678   0.56559   1.000
    C19     C    0.62813   0.77678   0.06558   1.000
    C20     C    0.77347   0.55797   0.49357   1.000
    C21     C    0.77348   0.55797   0.00000   1.000
    C22     C    0.63291   0.78220   0.85255   1.000
    C23     C    0.63294   0.78220   0.35253   1.000
    C24     C    0.12967   0.27701   0.81557   1.000
    C25     C    0.12969   0.27701   0.31556   1.000
    C26     C    0.98475   0.05820   0.88677   1.000
    C27     C    0.98477   0.05821   0.38677   1.000
    C28     C    0.70345   0.28271   0.81634   1.000
    C29     C    0.70347   0.28271   0.31633   1.000
    C30     C    0.37186   0.22323   0.93440   1.000
    C31     C    0.37187   0.22324   0.43439   1.000
    C32     C    0.22652   0.44206   0.00642   1.000
    C33     C    0.22653   0.44206   0.50641   1.000
    C34     C    0.36706   0.21783   0.64744   1.000
    C35     C    0.36708   0.21783   0.14743   1.000
    C36     C    0.95307   0.75497   0.67472   1.000
    C37     C    0.95309   0.75497   0.17471   1.000
    C38     C    0.92641   0.83781   0.64865   1.000
    C39     C    0.92643   0.83781   0.14864   1.000
    C40     C    0.16871   0.83496   0.64855   1.000
    C41     C    0.16873   0.83496   0.14854   1.000
    C42     C    0.78320   0.88354   0.63527   1.000
    C43     C    0.78322   0.88354   0.13526   1.000
    C44     C    0.03492   0.87763   0.63459   1.000
    C45     C    0.03493   0.87763   0.13458   1.000
    C46     C    0.28446   0.87757   0.63587   1.000
    C47     C    0.28448   0.87757   0.13586   1.000
    C48     C    0.11712   0.62271   0.71355   1.000
    C49     C    0.11714   0.62271   0.21355   1.000
    C50     C    0.19335   0.75220   0.67420   1.000
    C51     C    0.19337   0.75221   0.17419   1.000
    C52     C    0.08637   0.71154   0.68702   1.000
    C53     C    0.08639   0.71154   0.18700   1.000
    C54     C    0.64849   0.74480   0.52426   1.000
    C55     C    0.64849   0.74480   0.02425   1.000
    C56     C    0.70120   0.66202   0.53774   1.000
    C57     C    0.70121   0.66202   0.03772   1.000
    C58     C    0.70309   0.66466   0.91662   1.000
    C59     C    0.70311   0.66466   0.41661   1.000
    C60     C    0.72793   0.61650   0.60939   1.000
    C61     C    0.72794   0.61650   0.10938   1.000
    C62     C    0.73031   0.62210   0.48358   1.000
    C63     C    0.73032   0.62210   0.00000   1.000
    C64     C    0.72980   0.62211   0.85874   1.000
    C65     C    0.72983   0.62211   0.35873   1.000
    C66     C    0.57125   0.87693   0.94195   1.000
    C67     C    0.57126   0.87693   0.44194   1.000
    C68     C    0.65124   0.74736   0.90418   1.000
    C69     C    0.65126   0.74736   0.40417   1.000
    C70     C    0.62449   0.78812   0.95756   1.000
    C71     C    0.62450   0.78812   0.45755   1.000
    C72     C    0.04691   0.24505   0.82526   1.000
    C73     C    0.04693   0.24504   0.32524   1.000
    C74     C    0.07357   0.16221   0.85133   1.000
    C75     C    0.07359   0.16221   0.35133   1.000
    C76     C    0.83127   0.16506   0.85143   1.000
    C77     C    0.83129   0.16506   0.35143   1.000
    C78     C    0.21678   0.11648   0.86472   1.000
    C79     C    0.21680   0.11647   0.36471   1.000
    C80     C    0.96507   0.12239   0.86540   1.000
    C81     C    0.96509   0.12239   0.36538   1.000
    C82     C    0.71553   0.12246   0.86411   1.000
    C83     C    0.71554   0.12246   0.36411   1.000
    C84     C    0.88286   0.37731   0.78642   1.000
    C85     C    0.88288   0.37731   0.28640   1.000
    C86     C    0.80663   0.24781   0.82577   1.000
    C87     C    0.80666   0.24781   0.32576   1.000
    C88     C    0.91362   0.28848   0.81296   1.000
    C89     C    0.91363   0.28848   0.31296   1.000
    C90     C    0.35147   0.25522   0.97573   1.000
    C91     C    0.35151   0.25522   0.47572   1.000
    C92     C    0.29881   0.33800   0.96225   1.000
    C93     C    0.29879   0.33800   0.46224   1.000
    C94     C    0.29689   0.33536   0.58337   1.000
    C95     C    0.29693   0.33537   0.08336   1.000
    C96     C    0.27203   0.38351   0.89060   1.000
    C97     C    0.27206   0.38352   0.39059   1.000
    C98     C    0.26965   0.37792   0.01641   1.000
    C99     C    0.26969   0.37792   0.51639   1.000
    C100    C    0.27018   0.37792   0.64125   1.000
    C101    C    0.27018   0.37792   0.14124   1.000
    C102    C    0.42874   0.12310   0.55805   1.000
    C103    C    0.42872   0.12310   0.05804   1.000
    C104    C    0.34874   0.25266   0.59581   1.000
    C105    C    0.34873   0.25266   0.09580   1.000
    C106    C    0.37549   0.21190   0.54243   1.000
    C107    C    0.37553   0.21191   0.04242   1.000
    C108    C    0.68388   0.84749   0.66109   1.000
    C109    C    0.68390   0.84749   0.16108   1.000
    C110    C    0.75783   0.95336   0.60007   1.000
    C111    C    0.75784   0.95336   0.10006   1.000
    C112    C    0.40245   0.83816   0.66051   1.000
    C113    C    0.40246   0.83815   0.16050   1.000
    C114    C    0.26929   0.94833   0.60258   1.000
    C115    C    0.26931   0.94833   0.10257   1.000
    C116    C    0.23978   0.58571   0.72240   1.000
    C117    C    0.23980   0.58572   0.22239   1.000
    C118    C    0.01707   0.58587   0.72665   1.000
    C119    C    0.01709   0.58587   0.22664   1.000
    C120    C    0.67734   0.65294   0.65891   1.000
    C121    C    0.67735   0.65294   0.15889   1.000
    C122    C    0.79762   0.54650   0.62222   1.000
    C123    C    0.79763   0.54651   0.12220   1.000
    C124    C    0.68210   0.66177   0.79948   1.000
    C125    C    0.68212   0.66177   0.29947   1.000
    C126    C    0.79586   0.55124   0.86649   1.000
    C127    C    0.79589   0.55125   0.36648   1.000
    C128    C    0.55293   0.91366   0.88060   1.000
    C129    C    0.55295   0.91366   0.38059   1.000
    C130    C    0.54580   0.91405   0.49174   1.000
    C131    C    0.54582   0.91405   0.00000   1.000
    C132    C    0.31611   0.15252   0.83890   1.000
    C133    C    0.31613   0.15252   0.33889   1.000
    C134    C    0.24216   0.04666   0.89992   1.000
    C135    C    0.24217   0.04666   0.39991   1.000
    C136    C    0.59754   0.16187   0.83947   1.000
    C137    C    0.59756   0.16187   0.33946   1.000
    C138    C    0.73069   0.05170   0.89742   1.000
    C139    C    0.73070   0.05170   0.39741   1.000
    C140    C    0.76020   0.41430   0.77758   1.000
    C141    C    0.76022   0.41431   0.27757   1.000
    C142    C    0.98291   0.41415   0.77332   1.000
    C143    C    0.98293   0.41415   0.27331   1.000
    C144    C    0.32260   0.34706   0.84109   1.000
    C145    C    0.32263   0.34706   0.34107   1.000
    C146    C    0.20239   0.45352   0.87777   1.000
    C147    C    0.20240   0.45352   0.37776   1.000
    C148    C    0.31789   0.33826   0.70051   1.000
    C149    C    0.31791   0.33826   0.20050   1.000
    C150    C    0.20411   0.44878   0.63349   1.000
    C151    C    0.20414   0.44878   0.13348   1.000
    C152    C    0.44705   0.08637   0.61940   1.000
    C153    C    0.44706   0.08637   0.11939   1.000
    C154    C    0.45419   0.08597   0.00825   1.000
    C155    C    0.45419   0.08597   0.50824   1.000
    O156    O    0.52820   0.93529   0.04673   1.000
    O157    O    0.55853   0.89549   0.97097   1.000
    O158    O    0.75190   0.59003   0.00000   1.000
    O159    O    0.71576   0.64206   0.01886   1.000
    O160    O    0.71670   0.64338   0.95831   1.000
    O161    O    0.24809   0.40999   0.01141   1.000
    O162    O    0.44145   0.10453   0.03315   1.000
    O163    O    0.47180   0.06474   0.95739   1.000
    O164    O    0.28329   0.35664   0.04988   1.000
    O165    O    0.28423   0.35796   0.98933   1.000
    O166    O    0.67485   0.70341   0.03099   1.000
    O167    O    0.63831   0.76079   0.04492   1.000
    O168    O    0.63649   0.76646   0.99091   1.000
    O169    O    0.71457   0.63926   0.07355   1.000
    O170    O    0.40212   0.16750   0.05023   1.000
    O171    O    0.36213   0.23228   0.06911   1.000
    O172    O    0.36350   0.23356   0.00907   1.000
    O173    O    0.43789   0.10473   0.08871   1.000
    O174    O    0.32283   0.29402   0.08958   1.000
    O175    O    0.28355   0.35664   0.11230   1.000
    O176    O    0.47883   0.02144   0.10642   1.000
    O177    O    0.35791   0.23525   0.12162   1.000
    O178    O    0.77053   0.91845   0.11766   1.000
    O179    O    0.27689   0.91295   0.11922   1.000
    O180    O    0.76279   0.58150   0.11579   1.000
    O181    O    0.70265   0.63472   0.13414   1.000
    O182    O    0.02509   0.90972   0.12390   1.000
    O183    O    0.23716   0.41335   0.13736   1.000
    O184    O    0.10183   0.85630   0.14156   1.000
    O185    O    0.98068   0.85772   0.14161   1.000
    O186    O    0.85482   0.86068   0.14195   1.000
    O187    O    0.73356   0.86552   0.14817   1.000
    O188    O    0.22660   0.85626   0.14220   1.000
    O189    O    0.34347   0.85786   0.14818   1.000
    O190    O    0.29404   0.35809   0.17087   1.000
    O191    O    0.18105   0.79358   0.16137   1.000
    O192    O    0.93976   0.79639   0.16168   1.000
    O193    O    0.62782   0.70161   0.18546   1.000
    O194    O    0.63109   0.79889   0.18655   1.000
    O195    O    0.24496   0.73476   0.17891   1.000
    O196    O    0.13988   0.73187   0.18060   1.000
    O197    O    0.91171   0.73899   0.17955   1.000
    O198    O    0.01974   0.73326   0.18086   1.000
    O199    O    0.10177   0.66712   0.20028   1.000
    O200    O    0.17847   0.60421   0.21797   1.000
    O201    O    0.06712   0.60429   0.22009   1.000
    O202    O    0.21333   0.52096   0.23844   1.000
    O203    O    0.91512   0.56485   0.23606   1.000
    O204    O    0.78669   0.47906   0.26152   1.000
    O205    O    0.08490   0.43517   0.26390   1.000
    O206    O    0.93291   0.39573   0.27985   1.000
    O207    O    0.82155   0.39581   0.28199   1.000
    O208    O    0.89826   0.33290   0.29968   1.000
    O209    O    0.36893   0.20113   0.31342   1.000
    O210    O    0.37218   0.29840   0.31451   1.000
    O211    O    0.70597   0.64194   0.32910   1.000
    O212    O    0.98028   0.26676   0.31910   1.000
    O213    O    0.86014   0.26815   0.31936   1.000
    O214    O    0.08831   0.26103   0.32040   1.000
    O215    O    0.75506   0.26526   0.32104   1.000
    O216    O    0.06026   0.20363   0.33829   1.000
    O217    O    0.81897   0.20644   0.33859   1.000
    O218    O    0.26646   0.13450   0.35180   1.000
    O219    O    0.65655   0.14217   0.35178   1.000
    O220    O    0.29734   0.36529   0.36583   1.000
    O221    O    0.14520   0.13934   0.35802   1.000
    O222    O    0.01934   0.14230   0.35836   1.000
    O223    O    0.77342   0.14376   0.35777   1.000
    O224    O    0.89819   0.14372   0.35841   1.000
    O225    O    0.64210   0.76478   0.37835   1.000
    O226    O    0.76286   0.58668   0.36260   1.000
    O227    O    0.71647   0.64338   0.38767   1.000
    O228    O    0.72312   0.08708   0.38076   1.000
    O229    O    0.22949   0.08157   0.38231   1.000
    O230    O    0.97493   0.09030   0.37607   1.000
    O231    O    0.23723   0.41852   0.38417   1.000
    O232    O    0.52119   0.97858   0.39355   1.000
    O233    O    0.56211   0.89529   0.41126   1.000
    O234    O    0.28542   0.36076   0.42642   1.000
    O235    O    0.67719   0.70601   0.41039   1.000
    O236    O    0.63788   0.76774   0.43086   1.000
    O237    O    0.47181   0.06474   0.45738   1.000
    O238    O    0.71671   0.64338   0.45010   1.000
    O239    O    0.36169   0.23923   0.45505   1.000
    O240    O    0.59788   0.83252   0.44974   1.000
    O241    O    0.55853   0.89549   0.46684   1.000
    O242    O    0.63649   0.76646   0.49091   1.000
    O243    O    0.32515   0.29661   0.46898   1.000
    O244    O    0.28424   0.35796   0.48932   1.000
    O245    O    0.36350   0.23356   0.50907   1.000
    O246    O    0.75189   0.59003   0.48857   1.000
    O247    O    0.71576   0.64206   0.51066   1.000
    O248    O    0.52819   0.93529   0.54261   1.000
    O249    O    0.24811   0.40999   0.51140   1.000
    O250    O    0.44147   0.10454   0.53314   1.000
    O251    O    0.28329   0.35664   0.54988   1.000
    O252    O    0.67484   0.70341   0.53100   1.000
    O253    O    0.63830   0.76079   0.54493   1.000
    O254    O    0.71456   0.63926   0.57356   1.000
    O255    O    0.40211   0.16750   0.55024   1.000
    O256    O    0.36211   0.23228   0.56912   1.000
    O257    O    0.43789   0.10473   0.58872   1.000
    O258    O    0.32281   0.29401   0.58959   1.000
    O259    O    0.28353   0.35664   0.61231   1.000
    O260    O    0.47881   0.02144   0.60643   1.000
    O261    O    0.35790   0.23524   0.62163   1.000
    O262    O    0.77052   0.91845   0.61767   1.000
    O263    O    0.27688   0.91295   0.61922   1.000
    O264    O    0.76277   0.58150   0.61580   1.000
    O265    O    0.70263   0.63472   0.63415   1.000
    O266    O    0.02508   0.90972   0.62390   1.000
    O267    O    0.23715   0.41335   0.63737   1.000
    O268    O    0.10182   0.85630   0.64157   1.000
    O269    O    0.98067   0.85772   0.64162   1.000
    O270    O    0.85481   0.86068   0.64196   1.000
    O271    O    0.73354   0.86552   0.64818   1.000
    O272    O    0.22659   0.85626   0.64221   1.000
    O273    O    0.34345   0.85786   0.64819   1.000
    O274    O    0.29403   0.35809   0.67088   1.000
    O275    O    0.18103   0.79358   0.66138   1.000
    O276    O    0.93974   0.79639   0.66168   1.000
    O277    O    0.62780   0.70161   0.68547   1.000
    O278    O    0.63107   0.79889   0.68656   1.000
    O279    O    0.24494   0.73475   0.67892   1.000
    O280    O    0.13986   0.73187   0.68061   1.000
    O281    O    0.91170   0.73899   0.67956   1.000
    O282    O    0.01972   0.73325   0.68087   1.000
    O283    O    0.10175   0.66712   0.70029   1.000
    O284    O    0.17845   0.60421   0.71798   1.000
    O285    O    0.06710   0.60429   0.72010   1.000
    O286    O    0.21331   0.52096   0.73845   1.000
    O287    O    0.91510   0.56485   0.73607   1.000
    O288    O    0.78667   0.47906   0.76153   1.000
    O289    O    0.08487   0.43517   0.76391   1.000
    O290    O    0.93288   0.39573   0.77987   1.000
    O291    O    0.82153   0.39581   0.78200   1.000
    O292    O    0.89824   0.33289   0.79969   1.000
    O293    O    0.36891   0.20113   0.81343   1.000
    O294    O    0.37215   0.29840   0.81452   1.000
    O295    O    0.70595   0.64194   0.82911   1.000
    O296    O    0.98027   0.26676   0.81911   1.000
    O297    O    0.86013   0.26815   0.81937   1.000
    O298    O    0.08829   0.26103   0.82042   1.000
    O299    O    0.75504   0.26526   0.82106   1.000
    O300    O    0.06024   0.20363   0.83830   1.000
    O301    O    0.81895   0.20643   0.83860   1.000
    O302    O    0.26644   0.13450   0.85181   1.000
    O303    O    0.65654   0.14217   0.85179   1.000
    O304    O    0.29731   0.36529   0.86584   1.000
    O305    O    0.14518   0.13934   0.85803   1.000
    O306    O    0.01932   0.14230   0.85836   1.000
    O307    O    0.77340   0.14376   0.85777   1.000
    O308    O    0.89817   0.14372   0.85841   1.000
    O309    O    0.64208   0.76478   0.87836   1.000
    O310    O    0.76283   0.58668   0.86262   1.000
    O311    O    0.71645   0.64338   0.88768   1.000
    O312    O    0.72311   0.08708   0.88077   1.000
    O313    O    0.22947   0.08157   0.88232   1.000
    O314    O    0.97491   0.09030   0.87608   1.000
    O315    O    0.23721   0.41851   0.88419   1.000
    O316    O    0.52117   0.97858   0.89356   1.000
    O317    O    0.56209   0.89529   0.91127   1.000
    O318    O    0.28542   0.36076   0.92643   1.000
    O319    O    0.67717   0.70601   0.91040   1.000
    O320    O    0.63787   0.76774   0.93087   1.000
    O321    O    0.36166   0.23923   0.95507   1.000
    O322    O    0.59787   0.83252   0.94976   1.000
    O323    O    0.32514   0.29661   0.96899   1.000
    O324    O    0.59723   0.90201   0.62728   1.000
    O325    O    0.59724   0.90201   0.12727   1.000
    O326    O    0.63420   0.95494   0.59677   1.000
    O327    O    0.63422   0.95494   0.09676   1.000
    O328    O    0.45651   0.89734   0.62699   1.000
    O329    O    0.49036   0.79422   0.68626   1.000
    O330    O    0.45653   0.89734   0.12698   1.000
    O331    O    0.49037   0.79422   0.18626   1.000
    O332    O    0.38993   0.95243   0.59803   1.000
    O333    O    0.38995   0.95242   0.09802   1.000
    O334    O    0.10195   0.52104   0.74058   1.000
    O335    O    0.10197   0.52104   0.24057   1.000
    O336    O    0.74524   0.59838   0.70219   1.000
    O337    O    0.74526   0.59838   0.20218   1.000
    O338    O    0.80538   0.54516   0.68385   1.000
    O339    O    0.80540   0.54516   0.18384   1.000
    O340    O    0.74762   0.60279   0.77248   1.000
    O341    O    0.63018   0.70603   0.75575   1.000
    O342    O    0.74764   0.60279   0.27247   1.000
    O343    O    0.63020   0.70603   0.25574   1.000
    O344    O    0.80450   0.54753   0.80599   1.000
    O345    O    0.80452   0.54753   0.30597   1.000
    O346    O    0.51762   0.97878   0.44913   1.000
    O347    O    0.51761   0.97878   0.95326   1.000
    O348    O    0.40276   0.09801   0.87271   1.000
    O349    O    0.40278   0.09801   0.37270   1.000
    O350    O    0.36578   0.04508   0.90322   1.000
    O351    O    0.36580   0.04508   0.40321   1.000
    O352    O    0.54348   0.10269   0.87300   1.000
    O353    O    0.50963   0.20580   0.81372   1.000
    O354    O    0.54350   0.10269   0.37299   1.000
    O355    O    0.50965   0.20580   0.31370   1.000
    O356    O    0.61005   0.04760   0.90197   1.000
    O357    O    0.61006   0.04760   0.40196   1.000
    O358    O    0.89802   0.47898   0.75940   1.000
    O359    O    0.89805   0.47898   0.25939   1.000
    O360    O    0.25472   0.40163   0.79779   1.000
    O361    O    0.25474   0.40163   0.29778   1.000
    O362    O    0.19461   0.45486   0.81614   1.000
    O363    O    0.19463   0.45486   0.31613   1.000
    O364    O    0.25236   0.39723   0.72751   1.000
    O365    O    0.36980   0.29400   0.74423   1.000
    O366    O    0.25238   0.39723   0.22750   1.000
    O367    O    0.36982   0.29400   0.24422   1.000
    O368    O    0.19548   0.45249   0.69400   1.000
    O369    O    0.19550   0.45249   0.19399   1.000
    O370    O    0.48239   0.02124   0.05086   1.000
    O371    O    0.48238   0.02125   0.55086   1.000
loop_
    _geom_bond_atom_site_label_1
    _geom_bond_atom_site_label_2
    _geom_bond_distance
    _geom_bond_site_symmetry_2
    _ccdc_geom_bond_type
    C131   O156      1.07520      .   S
    C1     O156      1.07520      .   S
    C131   O157      0.72022  1_554   S
    C66    O157      0.72022      .   S
    C21    O158      0.55537      .   S
    C63    O158      0.55537      .   S
    C63    O159      0.56204      .   S
    C57    O159      0.56204      .   S
    C63    O160      0.84685  1_554   S
    C58    O160      0.84685      .   S
    C32    O161      0.54463      .   S
    C98    O161      0.54463      .   S
    C154   O162      0.64642      .   S
    C103   O162      0.64642      .   S
    C154   O163      1.15375  1_554   S
    C4     O163      1.15375      .   S
    C98    O164      0.70070      .   S
    C95    O164      0.70070      .   S
    C98    O165      0.70071  1_554   S
    C92    O165      0.70071      .   S
    C55    O166      0.70032      .   S
    C57    O166      0.70032      .   S
    C55    O167      0.54317      .   S
    C19    O167      0.54317      .   S
    C55    O168      0.69794  1_554   S
    C70    O168      0.69794      .   S
    C57    O169      0.74804      .   S
    C61    O169      0.74804      .   S
    C107   O170      0.74876      .   S
    C103   O170      0.74876      .   S
    C107   O171      0.69843      .   S
    C105   O171      0.69843      .   S
    C107   O172      0.69793      .   S
    C90    O172      0.69793  1_556   S
    C103   O173      0.63232      .   S
    C153   O173      0.63232      .   S
    C95    O174      0.69918      .   S
    C105   O174      0.69918      .   S
    C95    O175      0.74799      .   S
    C101   O175      0.74799      .   S
    C1     O176      1.19327  1_565   S
    C153   O176      1.19327      .   S
    C105   O177      0.54358      .   S
    C35    O177      0.54358      .   S
    C111   O178      0.62526      .   S
    C43    O178      0.62526      .   S
    C115   O179      0.62620      .   S
    C47    O179      0.62620      .   S
    C61    O180      0.62526      .   S
    C123   O180      0.62526      .   S
    C61    O181      0.65517      .   S
    C121   O181      0.65517      .   S
    C15    O182      0.54462      .   S
    C45    O182      0.54462      .   S
    C151   O183      0.62605      .   S
    C101   O183      0.62605      .   S
    C45    O184      0.70090      .   S
    C41    O184      0.70090      .   S
    C45    O185      0.70063  1_455   S
    C39    O185      0.70063      .   S
    C43    O186      0.74798      .   S
    C39    O186      0.74798      .   S
    C43    O187      0.65524      .   S
    C109   O187      0.65524      .   S
    C47    O188      0.74793      .   S
    C41    O188      0.74793      .   S
    C47    O189      0.65334      .   S
    C113   O189      0.65334      .   S
    C101   O190      0.65362      .   S
    C149   O190      0.65362      .   S
    C41    O191      0.69922      .   S
    C51    O191      0.69922      .   S
    C39    O192      0.70032      .   S
    C37    O192      0.70032      .   S
    C121   O193      1.11017      .   S
    C9     O193      1.11017      .   S
    C109   O194      1.11038      .   S
    C9     O194      1.11038      .   S
    C51    O195      0.54363      .   S
    C17    O195      0.54363      .   S
    C51    O196      0.69851      .   S
    C53    O196      0.69851      .   S
    C37    O197      0.54321      .   S
    C13    O197      0.54321      .   S
    C37    O198      0.69815  1_655   S
    C53    O198      0.69815      .   S
    C53    O199      0.74878      .   S
    C49    O199      0.74878      .   S
    C49    O200      0.63222      .   S
    C117   O200      0.63222      .   S
    C49    O201      0.64675      .   S
    C119   O201      0.64675      .   S
    C117   O202      1.19264      .   S
    C7     O202      1.19264      .   S
    C119   O203      1.15382  1_455   S
    C3     O203      1.15382      .   S
    C3     O204      1.19264      .   S
    C141   O204      1.19264      .   S
    C7     O205      1.15382      .   S
    C143   O205      1.15382  1_655   S
    C143   O206      0.64675      .   S
    C85    O206      0.64675      .   S
    C141   O207      0.63223      .   S
    C85    O207      0.63223      .   S
    C85    O208      0.74878      .   S
    C89    O208      0.74878      .   S
    C11    O209      1.11037      .   S
    C133   O209      1.11037      .   S
    C11    O210      1.11016      .   S
    C145   O210      1.11016      .   S
    C125   O211      0.65362      .   S
    C65    O211      0.65362      .   S
    C89    O212      0.69816      .   S
    C73    O212      0.69816  1_455   S
    C89    O213      0.69851      .   S
    C87    O213      0.69851      .   S
    C25    O214      0.54322      .   S
    C73    O214      0.54322      .   S
    C29    O215      0.54364      .   S
    C87    O215      0.54364      .   S
    C73    O216      0.70032      .   S
    C75    O216      0.70032      .   S
    C87    O217      0.69922      .   S
    C77    O217      0.69922      .   S
    C133   O218      0.65525      .   S
    C79    O218      0.65525      .   S
    C137   O219      0.65333      .   S
    C83    O219      0.65333      .   S
    C145   O220      0.65518      .   S
    C97    O220      0.65518      .   S
    C75    O221      0.74799      .   S
    C79    O221      0.74799      .   S
    C75    O222      0.70063      .   S
    C81    O222      0.70063  1_655   S
    C77    O223      0.74790      .   S
    C83    O223      0.74790      .   S
    C77    O224      0.70090      .   S
    C81    O224      0.70090      .   S
    C23    O225      0.54359      .   S
    C69    O225      0.54359      .   S
    C65    O226      0.62604      .   S
    C127   O226      0.62604      .   S
    C65    O227      0.74798      .   S
    C59    O227      0.74798      .   S
    C83    O228      0.62620      .   S
    C139   O228      0.62620      .   S
    C79    O229      0.62525      .   S
    C135   O229      0.62525      .   S
    C81    O230      0.54462      .   S
    C27    O230      0.54462      .   S
    C147   O231      0.62526      .   S
    C97    O231      0.62526      .   S
    C129   O232      1.19322      .   S
    C5     O232      1.19322  1_545   S
    C129   O233      0.63232      .   S
    C67    O233      0.63232      .   S
    C97    O234      0.74802      .   S
    C93    O234      0.74802      .   S
    C69    O235      0.69919      .   S
    C59    O235      0.69919      .   S
    C69    O236      0.69843      .   S
    C71    O236      0.69843      .   S
    C5     O237      1.15378      .   S
    C155   O237      1.15378      .   S
    C59    O238      0.70090      .   S
    C62    O238      0.70090      .   S
    C31    O239      0.54317      .   S
    C91    O239      0.54317      .   S
    C67    O240      0.74877      .   S
    C71    O240      0.74877      .   S
    C67    O241      0.64663      .   S
    C130   O241      0.64663      .   S
    C71    O242      0.69814      .   S
    C54    O242      0.69814      .   S
    C93    O243      0.70031      .   S
    C91    O243      0.70031      .   S
    C93    O244      0.70070      .   S
    C99    O244      0.70070      .   S
    C91    O245      0.69813      .   S
    C106   O245      0.69813      .   S
    C62    O246      0.54463      .   S
    C20    O246      0.54463      .   S
    C62    O247      0.70070      .   S
    C56    O247      0.70070      .   S
    C130   O248      1.15378      .   S
    C0     O248      1.15378      .   S
    C33    O249      0.54463      .   S
    C99    O249      0.54463      .   S
    C155   O250      0.64663      .   S
    C102   O250      0.64663      .   S
    C99    O251      0.70090      .   S
    C94    O251      0.70090      .   S
    C54    O252      0.70031      .   S
    C56    O252      0.70031      .   S
    C54    O253      0.54317      .   S
    C18    O253      0.54317      .   S
    C56    O254      0.74803      .   S
    C60    O254      0.74803      .   S
    C106   O255      0.74876      .   S
    C102   O255      0.74876      .   S
    C106   O256      0.69844      .   S
    C104   O256      0.69844      .   S
    C102   O257      0.63231      .   S
    C152   O257      0.63231      .   S
    C94    O258      0.69918      .   S
    C104   O258      0.69918      .   S
    C94    O259      0.74798      .   S
    C100   O259      0.74798      .   S
    C0     O260      1.19324  1_565   S
    C152   O260      1.19324      .   S
    C104   O261      0.54358      .   S
    C34    O261      0.54358      .   S
    C110   O262      0.62525      .   S
    C42    O262      0.62525      .   S
    C114   O263      0.62620      .   S
    C46    O263      0.62620      .   S
    C60    O264      0.62526      .   S
    C122   O264      0.62526      .   S
    C60    O265      0.65517      .   S
    C120   O265      0.65517      .   S
    C14    O266      0.54462      .   S
    C44    O266      0.54462      .   S
    C150   O267      0.62604      .   S
    C100   O267      0.62604      .   S
    C44    O268      0.70090      .   S
    C40    O268      0.70090      .   S
    C44    O269      0.70063  1_455   S
    C38    O269      0.70063      .   S
    C42    O270      0.74798      .   S
    C38    O270      0.74798      .   S
    C42    O271      0.65524      .   S
    C108   O271      0.65524      .   S
    C46    O272      0.74794      .   S
    C40    O272      0.74794      .   S
    C46    O273      0.65334      .   S
    C112   O273      0.65334      .   S
    C100   O274      0.65362      .   S
    C148   O274      0.65362      .   S
    C40    O275      0.69923      .   S
    C50    O275      0.69923      .   S
    C38    O276      0.70031      .   S
    C36    O276      0.70031      .   S
    C120   O277      1.11016      .   S
    C8     O277      1.11016      .   S
    C108   O278      1.11038      .   S
    C8     O278      1.11038      .   S
    C50    O279      0.54364      .   S
    C16    O279      0.54364      .   S
    C50    O280      0.69851      .   S
    C52    O280      0.69851      .   S
    C36    O281      0.54322      .   S
    C12    O281      0.54322      .   S
    C36    O282      0.69814  1_655   S
    C52    O282      0.69814      .   S
    C52    O283      0.74878      .   S
    C48    O283      0.74878      .   S
    C48    O284      0.63223      .   S
    C116   O284      0.63223      .   S
    C48    O285      0.64674      .   S
    C118   O285      0.64674      .   S
    C116   O286      1.19263      .   S
    C6     O286      1.19263      .   S
    C118   O287      1.15383  1_455   S
    C2     O287      1.15383      .   S
    C2     O288      1.19264      .   S
    C140   O288      1.19264      .   S
    C6     O289      1.15381      .   S
    C142   O289      1.15381  1_655   S
    C142   O290      0.64675      .   S
    C84    O290      0.64675      .   S
    C140   O291      0.63223      .   S
    C84    O291      0.63223      .   S
    C84    O292      0.74879      .   S
    C88    O292      0.74879      .   S
    C10    O293      1.11037      .   S
    C132   O293      1.11037      .   S
    C10    O294      1.11016      .   S
    C144   O294      1.11016      .   S
    C124   O295      0.65362      .   S
    C64    O295      0.65362      .   S
    C88    O296      0.69815      .   S
    C72    O296      0.69815  1_455   S
    C88    O297      0.69852      .   S
    C86    O297      0.69852      .   S
    C24    O298      0.54322      .   S
    C72    O298      0.54322      .   S
    C28    O299      0.54364      .   S
    C86    O299      0.54364      .   S
    C72    O300      0.70033      .   S
    C74    O300      0.70033      .   S
    C86    O301      0.69923      .   S
    C76    O301      0.69923      .   S
    C132   O302      0.65524      .   S
    C78    O302      0.65524      .   S
    C136   O303      0.65334      .   S
    C82    O303      0.65334      .   S
    C144   O304      0.65516      .   S
    C96    O304      0.65516      .   S
    C74    O305      0.74800      .   S
    C78    O305      0.74800      .   S
    C74    O306      0.70062      .   S
    C80    O306      0.70062  1_655   S
    C76    O307      0.74789      .   S
    C82    O307      0.74789      .   S
    C76    O308      0.70089      .   S
    C80    O308      0.70089      .   S
    C22    O309      0.54359      .   S
    C68    O309      0.54359      .   S
    C64    O310      0.62605      .   S
    C126   O310      0.62605      .   S
    C64    O311      0.74799      .   S
    C58    O311      0.74799      .   S
    C82    O312      0.62620      .   S
    C138   O312      0.62620      .   S
    C78    O313      0.62525      .   S
    C134   O313      0.62525      .   S
    C80    O314      0.54463      .   S
    C26    O314      0.54463      .   S
    C146   O315      0.62526      .   S
    C96    O315      0.62526      .   S
    C128   O316      1.19324      .   S
    C4     O316      1.19324  1_545   S
    C128   O317      0.63231      .   S
    C66    O317      0.63231      .   S
    C96    O318      0.74804      .   S
    C92    O318      0.74804      .   S
    C68    O319      0.69918      .   S
    C58    O319      0.69918      .   S
    C68    O320      0.69844      .   S
    C70    O320      0.69844      .   S
    C30    O321      0.54317      .   S
    C90    O321      0.54317      .   S
    C66    O322      0.74876      .   S
    C70    O322      0.74876      .   S
    C92    O323      0.70031      .   S
    C90    O323      0.70031      .   S
    C108   O324      1.25191      .   S
    C0     O324      1.25191      .   S
    C109   O325      1.25192      .   S
    C1     O325      1.25192      .   S
    C110   O326      1.24524      .   S
    C0     O326      1.24524      .   S
    C111   O327      1.24523      .   S
    C1     O327      1.24523      .   S
    C112   O328      1.30571      .   S
    C0     O328      1.30571      .   S
    C112   O329      1.11096      .   S
    C8     O329      1.11096      .   S
    C113   O330      1.30572      .   S
    C1     O330      1.30572      .   S
    C113   O331      1.11095      .   S
    C9     O331      1.11095      .   S
    C114   O332      1.22670      .   S
    C0     O332      1.22670      .   S
    C115   O333      1.22670      .   S
    C1     O333      1.22670      .   S
    C118   O334      1.24848      .   S
    C6     O334      1.24848      .   S
    C119   O335      1.24848      .   S
    C7     O335      1.24848      .   S
    C120   O336      1.25314      .   S
    C2     O336      1.25314      .   S
    C121   O337      1.25316      .   S
    C3     O337      1.25316      .   S
    C122   O338      1.24468      .   S
    C2     O338      1.24468      .   S
    C123   O339      1.24469      .   S
    C3     O339      1.24469      .   S
    C124   O340      1.29837      .   S
    C2     O340      1.29837      .   S
    C124   O341      1.11179      .   S
    C8     O341      1.11179      .   S
    C125   O342      1.29836      .   S
    C3     O342      1.29836      .   S
    C125   O343      1.11178      .   S
    C9     O343      1.11178      .   S
    C126   O344      1.22932      .   S
    C2     O344      1.22932      .   S
    C127   O345      1.22931      .   S
    C3     O345      1.22931      .   S
    C130   O346      1.24915      .   S
    C5     O346      1.24915  1_545   S
    C131   O347      1.29265  1_554   S
    C4     O347      1.29265  1_545   S
    C132   O348      1.25191      .   S
    C4     O348      1.25191      .   S
    C133   O349      1.25187      .   S
    C5     O349      1.25187      .   S
    C134   O350      1.24526      .   S
    C4     O350      1.24526      .   S
    C135   O351      1.24525      .   S
    C5     O351      1.24525      .   S
    C136   O352      1.30581      .   S
    C4     O352      1.30581      .   S
    C136   O353      1.11095      .   S
    C10    O353      1.11095      .   S
    C137   O354      1.30579      .   S
    C5     O354      1.30579      .   S
    C137   O355      1.11096      .   S
    C11    O355      1.11096      .   S
    C138   O356      1.22669      .   S
    C4     O356      1.22669      .   S
    C139   O357      1.22668      .   S
    C5     O357      1.22668      .   S
    C142   O358      1.24847      .   S
    C2     O358      1.24847      .   S
    C143   O359      1.24847      .   S
    C3     O359      1.24847      .   S
    C144   O360      1.25318      .   S
    C6     O360      1.25318      .   S
    C145   O361      1.25317      .   S
    C7     O361      1.25317      .   S
    C146   O362      1.24470      .   S
    C6     O362      1.24470      .   S
    C147   O363      1.24468      .   S
    C7     O363      1.24468      .   S
    C148   O364      1.29829      .   S
    C6     O364      1.29829      .   S
    C148   O365      1.11179      .   S
    C10    O365      1.11179      .   S
    C149   O366      1.29831      .   S
    C7     O366      1.29831      .   S
    C149   O367      1.11180      .   S
    C11    O367      1.11180      .   S
    C150   O368      1.22930      .   S
    C6     O368      1.22930      .   S
    C151   O369      1.22931      .   S
    C7     O369      1.22931      .   S
    C154   O370      1.24902      .   S
    C1     O370      1.24902  1_565   S
    C155   O371      1.24914      .   S
    C0     O371      1.24914  1_565   S
