# CIF file generated by openbabel 2.4.90, see http://openbabel.sf.net
data_I
_chemical_name_common ''
_cell_length_a 3.9555
_cell_length_b 8.1165
_cell_length_c 26.6393
_cell_angle_alpha 90.0007
_cell_angle_beta 93.2013
_cell_angle_gamma 90.002
_space_group_name_H-M_alt 'P 1'
_space_group_name_Hall 'P 1'
loop_
    _symmetry_equiv_pos_as_xyz
    x,y,z
loop_
    _atom_site_label
    _atom_site_type_symbol
    _atom_site_fract_x
    _atom_site_fract_y
    _atom_site_fract_z
    _atom_site_occupancy
    K0      K    0.66612   0.77474   0.72435   1.000
    K1      K    0.16612   0.72525   0.22435   1.000
    K2      K    0.33346   0.22656   0.27552   1.000
    H3      H    0.08265   0.66518   0.61764   1.000
    H4      H    0.58179   0.19626   0.61926   1.000
    H5      H    0.71101   0.24649   0.52846   1.000
    H6      H    0.42196   0.16462   0.88241   1.000
    H7      H    0.91467   0.69780   0.88028   1.000
    H8      H    0.79271   0.74589   0.97161   1.000
    H9      H    0.92197   0.33533   0.38239   1.000
    H10     H    0.41479   0.80221   0.38030   1.000
    H11     H    0.29287   0.75415   0.47161   1.000
    H12     H    0.58261   0.83485   0.11763   1.000
    H13     H    0.08190   0.30371   0.11926   1.000
    H14     H    0.21108   0.25338   0.02845   1.000
    C15     C    0.46232   0.48280   0.52640   1.000
    C16     C    0.22441   0.57060   0.59866   1.000
    C17     C    0.32034   0.42764   0.62535   1.000
    C18     C    0.49701   0.30794   0.59957   1.000
    C19     C    0.56770   0.33485   0.54972   1.000
    C20     C    0.23123   0.40563   0.67925   1.000
    C21     C    0.03781   0.98322   0.97338   1.000
    C22     C    0.27820   0.07051   0.90127   1.000
    C23     C    0.18024   0.92810   0.87447   1.000
    K24     K    0.83344   0.27344   0.77553   1.000
    C25     C    0.00110   0.80895   0.90009   1.000
    C26     C    0.93030   0.83580   0.94994   1.000
    C27     C    0.26958   0.90566   0.82061   1.000
    C28     C    0.53787   0.51675   0.47338   1.000
    C29     C    0.77824   0.42944   0.40126   1.000
    C30     C    0.68029   0.57190   0.37448   1.000
    C31     C    0.50119   0.69104   0.40011   1.000
    C32     C    0.43039   0.66418   0.44995   1.000
    C33     C    0.76960   0.59436   0.32061   1.000
    C34     C    0.96234   0.01719   0.02639   1.000
    C35     C    0.72440   0.92942   0.09866   1.000
    C36     C    0.82036   0.07235   0.12534   1.000
    C37     C    0.99709   0.19204   0.09957   1.000
    C38     C    0.06777   0.16513   0.04972   1.000
    C39     C    0.73124   0.09437   0.17924   1.000
    N40     N    0.29214   0.60001   0.55081   1.000
    N41     N    0.21012   0.09991   0.94911   1.000
    N42     N    0.71017   0.40001   0.44910   1.000
    N43     N    0.79212   0.90001   0.05080   1.000
    O44     O    0.28765   0.26438   0.69969   1.000
    O45     O    0.10896   0.52744   0.70181   1.000
    O46     O    0.20762   0.76500   0.80007   1.000
    O47     O    0.39722   0.02640   0.79821   1.000
    O48     O    0.70764   0.73501   0.30008   1.000
    O49     O    0.89726   0.47359   0.29821   1.000
    O50     O    0.78769   0.23563   0.19968   1.000
    O51     O    0.60898   0.97259   0.20181   1.000
loop_
    _geom_bond_atom_site_label_1
    _geom_bond_atom_site_label_2
    _geom_bond_distance
    _geom_bond_site_symmetry_2
    _ccdc_geom_bond_type
    C34    C38       1.40465  1_655   S
    C34    N43       1.35264  1_545   S
    C34    C21       1.48555  1_644   S
    H14    C38       1.09146      .   S
    C38    C37       1.38955  1_455   S
    N43    C35       1.33863      .   S
    C35    H12       1.09132      .   S
    C35    C36       1.40179  1_565   S
    C37    H13       1.09064  1_655   S
    C37    C36       1.39902      .   S
    C36    C39       1.50812      .   S
    C39    O50       1.28349      .   S
    C39    O51       1.26671  1_545   S
    O51    K1        2.75254      .   S
    K2     O49       2.73475  1_455   S
    O49    C33       1.26717      .   S
    O48    C33       1.28357      .   S
    C33    C30       1.50786      .   S
    C30    C31       1.39900      .   S
    C30    C29       1.40192      .   S
    H10    C31       1.09058      .   S
    H9     C29       1.09135      .   S
    C31    C32       1.38932      .   S
    C29    N42       1.33872      .   S
    N42    C28       1.35280      .   S
    C32    H11       1.09417      .   S
    C32    C28       1.40458      .   S
    C28    C15       1.48550      .   S
    C15    C19       1.40467      .   S
    C15    N40       1.35279      .   S
    H5     C19       1.09196      .   S
    C19    C18       1.38956      .   S
    N40    C16       1.33861      .   S
    C16    H3        1.09131      .   S
    C16    C17       1.40196      .   S
    C18    H4        1.09062      .   S
    C18    C17       1.39903      .   S
    C17    C20       1.50812      .   S
    C20    O44       1.28349      .   S
    C20    O45       1.26692      .   S
    O45    K0        2.75234  1_455   S
    K24    O47       2.73475      .   S
    O47    C27       1.26686  1_545   S
    O46    C27       1.28357      .   S
    C27    C23       1.50786      .   S
    C23    C25       1.39899      .   S
    C23    C22       1.40169  1_565   S
    H7     C25       1.09059  1_655   S
    H6     C22       1.09135      .   S
    C25    C26       1.38932  1_455   S
    C22    N41       1.33868      .   S
    N41    C21       1.35232  1_545   S
    C26    H8        1.09409      .   S
    C26    C21       1.40457  1_655   S
    O44    K24       2.77857  1_455   S
    O45    K24       3.08769  1_455   S
    O46    K0        2.78808      .   S
    O47    K0        3.06744  1_545   S
    O48    K1        2.78820  1_655   S
    O49    K1        3.06727  1_655   S
    O50    K2        2.77856      .   S
    O51    K2        3.08743  1_565   S
