# CIF file generated by openbabel 2.4.90, see http://openbabel.sf.net
data_I
_chemical_name_common ''
_cell_length_a 3.9555
_cell_length_b 8.1165
_cell_length_c 26.6393
_cell_angle_alpha 90.0007
_cell_angle_beta 93.2013
_cell_angle_gamma 90.002
_space_group_name_H-M_alt 'P 1'
_space_group_name_Hall 'P 1'
loop_
    _symmetry_equiv_pos_as_xyz
    x,y,z
loop_
    _atom_site_label
    _atom_site_type_symbol
    _atom_site_fract_x
    _atom_site_fract_y
    _atom_site_fract_z
    _atom_site_occupancy
    Zr0     Zr   0.83344   0.27344   0.77553   1.000
    Zr1     Zr   0.66612   0.77474   0.72435   1.000
    Zr2     Zr   0.16612   0.72525   0.22435   1.000
    Zr3     Zr   0.33346   0.22656   0.27552   1.000
    N4      N    0.50040   0.49988   0.49992   1.000
    O5      O    0.69397   0.57549   0.60650   1.000
    O6      O    0.73580   0.45016   0.61930   1.000
    O7      O    0.28047   0.38440   0.61877   1.000
    O8      O    0.30788   0.42498   0.39339   1.000
    O9      O    0.26604   0.54965   0.38060   1.000
    O10     O    0.71864   0.61501   0.38107   1.000
    N11     N    0.00038   0.00010   0.99992   1.000
    O12     O    0.80786   0.07501   0.89339   1.000
    O13     O    0.76602   0.95034   0.88060   1.000
    O14     O    0.21862   0.88499   0.88106   1.000
    O15     O    0.19397   0.92451   0.10650   1.000
    O16     O    0.23580   0.04984   0.11929   1.000
    O17     O    0.78048   0.11560   0.11876   1.000
    N18     N    0.33740   0.49767   0.84019   1.000
    O19     O    0.46610   0.43199   0.82176   1.000
    N20     N    0.65609   0.50230   0.15955   1.000
    O21     O    0.52894   0.56765   0.17803   1.000
    N22     N    0.15607   0.99771   0.65956   1.000
    O23     O    0.02893   0.93237   0.67804   1.000
    N24     N    0.83745   0.00236   0.34019   1.000
    O25     O    0.96613   0.06803   0.32175   1.000
loop_
    _geom_bond_atom_site_label_1
    _geom_bond_atom_site_label_2
    _geom_bond_distance
    _geom_bond_site_symmetry_2
    _ccdc_geom_bond_type
    N4     O5        2.96327      .   S
    Zr1    O5        3.53865      .   S
    N4     O6        3.28816      .   S
    Zr0    O6        4.39880      .   S
    N4     O7        3.45922      .   S
    Zr0    O7        4.71193  1_655   S
    N4     O8        2.95998      .   S
    Zr3    O8        3.53538      .   S
    N4     O9        3.28592      .   S
    Zr2    O9        4.39656      .   S
    N4     O10       3.45661      .   S
    Zr2    O10       4.71050  1_455   S
    N11    O12       2.95987  1_455   S
    Zr0    O12       3.53527      .   S
    N11    O13       3.28580  1_445   S
    Zr1    O13       4.39649      .   S
    N11    O14       3.45658  1_545   S
    Zr1    O14       4.71042      .   S
    N11    O15       2.96331  1_546   S
    Zr2    O15       3.53875      .   S
    N11    O16       3.28814  1_556   S
    Zr3    O16       4.39864      .   S
    N11    O17       3.45914  1_456   S
    Zr3    O17       4.71182      .   S
    N18    O19       0.90141      .   S
    Zr0    O19       2.34172      .   S
    N20    O21       0.89681      .   S
    Zr2    O21       2.32727      .   S
    N22    O23       0.89676      .   S
    Zr1    O23       2.32716  1_655   S
    N24    O25       0.90135      .   S
    Zr3    O25       2.34166  1_455   S
