# CIF file generated by openbabel 2.4.90, see http://openbabel.sf.net
data_I
_chemical_name_common ''
_cell_length_a 3.9555
_cell_length_b 8.1165
_cell_length_c 26.6393
_cell_angle_alpha 90.0007
_cell_angle_beta 93.2013
_cell_angle_gamma 90.002
_space_group_name_H-M_alt 'P 1'
_space_group_name_Hall 'P 1'
loop_
    _symmetry_equiv_pos_as_xyz
    x,y,z
loop_
    _atom_site_label
    _atom_site_type_symbol
    _atom_site_fract_x
    _atom_site_fract_y
    _atom_site_fract_z
    _atom_site_occupancy
    C0      C    0.83344   0.27344   0.77553   1.000
    C1      C    0.66612   0.77474   0.72435   1.000
    C2      C    0.16612   0.72525   0.22435   1.000
    C3      C    0.33346   0.22656   0.27552   1.000
    C4      C    0.29606   0.57632   0.82186   1.000
    C5      C    0.36000   0.45753   0.86762   1.000
    C6      C    0.08265   0.66518   0.61764   1.000
    C7      C    0.58179   0.19626   0.61926   1.000
    C8      C    0.71101   0.24649   0.52846   1.000
    C9      C    0.19814   0.07650   0.67782   1.000
    C10     C    0.13260   0.95735   0.63218   1.000
    C11     C    0.42196   0.16462   0.88241   1.000
    C12     C    0.91467   0.69780   0.88028   1.000
    C13     C    0.79271   0.74589   0.97161   1.000
    C14     C    0.69816   0.42349   0.17781   1.000
    C15     C    0.63261   0.54268   0.13217   1.000
    C16     C    0.92197   0.33533   0.38239   1.000
    C17     C    0.41479   0.80221   0.38030   1.000
    C18     C    0.29287   0.75415   0.47161   1.000
    C19     C    0.79608   0.92372   0.32186   1.000
    C20     C    0.86010   0.04250   0.36761   1.000
    C21     C    0.58261   0.83485   0.11763   1.000
    C22     C    0.08190   0.30371   0.11926   1.000
    C23     C    0.21108   0.25338   0.02845   1.000
    C24     C    0.46232   0.48280   0.52640   1.000
    C25     C    0.22441   0.57060   0.59866   1.000
    C26     C    0.32034   0.42764   0.62535   1.000
    C27     C    0.49701   0.30794   0.59957   1.000
    C28     C    0.56770   0.33485   0.54972   1.000
    C29     C    0.23123   0.40563   0.67925   1.000
    C30     C    0.03781   0.98322   0.97338   1.000
    C31     C    0.27820   0.07051   0.90127   1.000
    C32     C    0.18024   0.92810   0.87447   1.000
    C33     C    0.00110   0.80895   0.90009   1.000
    C34     C    0.93030   0.83580   0.94994   1.000
    C35     C    0.26958   0.90566   0.82061   1.000
    C36     C    0.53787   0.51675   0.47338   1.000
    C37     C    0.77824   0.42944   0.40126   1.000
    C38     C    0.68029   0.57190   0.37448   1.000
    C39     C    0.50119   0.69104   0.40011   1.000
    C40     C    0.43039   0.66418   0.44995   1.000
    C41     C    0.76960   0.59436   0.32061   1.000
    C42     C    0.96234   0.01719   0.02639   1.000
    C43     C    0.72440   0.92942   0.09866   1.000
    C44     C    0.82036   0.07235   0.12534   1.000
    C45     C    0.99709   0.19204   0.09957   1.000
    C46     C    0.06777   0.16513   0.04972   1.000
    C47     C    0.73124   0.09437   0.17924   1.000
    C48     C    0.29214   0.60001   0.55081   1.000
    C49     C    0.21012   0.09991   0.94911   1.000
    C50     C    0.71017   0.40001   0.44910   1.000
    C51     C    0.79212   0.90001   0.05080   1.000
    C52     C    0.28765   0.26438   0.69969   1.000
    C53     C    0.10896   0.52744   0.70181   1.000
    C54     C    0.35615   0.45917   0.83111   1.000
    C55     C    0.20762   0.76500   0.80007   1.000
    C56     C    0.39722   0.02640   0.79821   1.000
    C57     C    0.13746   0.95929   0.66869   1.000
    C58     C    0.70764   0.73501   0.30008   1.000
    C59     C    0.89726   0.47359   0.29821   1.000
    C60     C    0.63748   0.54073   0.16868   1.000
    C61     C    0.78769   0.23563   0.19968   1.000
    C62     C    0.60898   0.97259   0.20181   1.000
    C63     C    0.85616   0.04085   0.33110   1.000
    O64     O    0.01506   0.09116   0.03806   1.000
    O65     O    0.87723   0.95860   0.03860   1.000
    O66     O    0.00008   0.00020   0.99989   1.000
    O67     O    0.13943   0.20925   0.03909   1.000
    O68     O    0.03243   0.17859   0.07465   1.000
    O69     O    0.75826   0.91471   0.07473   1.000
    O70     O    0.65350   0.88213   0.10814   1.000
    O71     O    0.77238   0.00088   0.11200   1.000
    O72     O    0.03949   0.24788   0.10942   1.000
    O73     O    0.90873   0.13219   0.11246   1.000
    O74     O    0.77580   0.08336   0.15229   1.000
    O75     O    0.63505   0.54170   0.15042   1.000
    O76     O    0.66782   0.48211   0.17325   1.000
    O77     O    0.75947   0.16500   0.18946   1.000
    O78     O    0.67011   0.03348   0.19052   1.000
    O79     O    0.38755   0.84892   0.21308   1.000
    O80     O    0.11536   0.35008   0.28686   1.000
    O81     O    0.83343   0.53397   0.30941   1.000
    O82     O    0.73862   0.66468   0.31035   1.000
    O83     O    0.72495   0.58313   0.34755   1.000
    O84     O    0.82612   0.98228   0.32648   1.000
    O85     O    0.85813   0.04168   0.34936   1.000
    O86     O    0.59074   0.63147   0.38729   1.000
    O87     O    0.72927   0.50067   0.38787   1.000
    O88     O    0.45799   0.74662   0.39020   1.000
    O89     O    0.85010   0.38238   0.39183   1.000
    O90     O    0.46579   0.67761   0.42503   1.000
    O91     O    0.74421   0.41472   0.42518   1.000
    O92     O    0.62402   0.45838   0.46124   1.000
    O93     O    0.36163   0.70917   0.46078   1.000
    O94     O    0.48413   0.59047   0.46167   1.000
    O95     O    0.50009   0.49977   0.49989   1.000
    O96     O    0.51501   0.40882   0.53806   1.000
    O97     O    0.37723   0.54141   0.53860   1.000
    O98     O    0.63935   0.29067   0.53909   1.000
    O99     O    0.53236   0.32139   0.57465   1.000
    O100    O    0.25828   0.58530   0.57474   1.000
    O101    O    0.15353   0.61789   0.60815   1.000
    O102    O    0.27237   0.49912   0.61200   1.000
    O103    O    0.53940   0.25210   0.60942   1.000
    O104    O    0.40867   0.36779   0.61246   1.000
    O105    O    0.27578   0.41664   0.65230   1.000
    O106    O    0.13503   0.95832   0.65043   1.000
    O107    O    0.16780   0.01790   0.67326   1.000
    O108    O    0.25944   0.33500   0.68947   1.000
    O109    O    0.17010   0.46654   0.69053   1.000
    O110    O    0.88754   0.65109   0.71308   1.000
    O111    O    0.61533   0.14992   0.78687   1.000
    O112    O    0.33340   0.96603   0.80941   1.000
    O113    O    0.23860   0.83533   0.81034   1.000
    O114    O    0.22491   0.91688   0.84754   1.000
    O115    O    0.32610   0.51774   0.82648   1.000
    O116    O    0.35808   0.45835   0.84936   1.000
    O117    O    0.09067   0.86853   0.88728   1.000
    O118    O    0.22922   0.99930   0.88787   1.000
    O119    O    0.95788   0.75338   0.89019   1.000
    O120    O    0.35008   0.11756   0.89184   1.000
    O121    O    0.96570   0.82237   0.92501   1.000
    O122    O    0.24416   0.08521   0.92519   1.000
    O123    O    0.12397   0.04156   0.96124   1.000
    O124    O    0.86150   0.79084   0.96077   1.000
    O125    O    0.98406   0.90951   0.96166   1.000
    O126    O    0.06055   0.26891   0.73761   1.000
    O127    O    0.97120   0.40044   0.73867   1.000
    O128    O    0.59479   0.36630   0.80332   1.000
    O129    O    0.43687   0.76987   0.76221   1.000
    O130    O    0.53167   0.90057   0.76128   1.000
    O131    O    0.90179   0.86702   0.69652   1.000
    O132    O    0.93688   0.73013   0.26222   1.000
    O133    O    0.03169   0.59942   0.26128   1.000
    O134    O    0.40180   0.63299   0.19651   1.000
    O135    O    0.56058   0.23110   0.23760   1.000
    O136    O    0.47122   0.09958   0.23866   1.000
    O137    O    0.09481   0.13371   0.30331   1.000
loop_
    _geom_bond_atom_site_label_1
    _geom_bond_atom_site_label_2
    _geom_bond_distance
    _geom_bond_site_symmetry_2
    _ccdc_geom_bond_type
    C42    O64       0.70233  1_655   S
    C46    O64       0.70233      .   S
    C42    O65       0.67632  1_545   S
    C51    O65       0.67632      .   S
    C42    O66       0.74278  1_654   S
    C30    O66       0.74278  1_565   S
    C23    O67       0.54573      .   S
    C46    O67       0.54573      .   S
    C46    O68       0.69478      .   S
    C45    O68       0.69478  1_655   S
    C51    O69       0.66931      .   S
    C43    O69       0.66931      .   S
    C43    O70       0.54566      .   S
    C21    O70       0.54566      .   S
    C43    O71       0.70089  1_565   S
    C44    O71       0.70089      .   S
    C45    O72       0.54532  1_655   S
    C22    O72       0.54532      .   S
    C45    O73       0.69951      .   S
    C44    O73       0.69951      .   S
    C44    O74       0.75406      .   S
    C47    O74       0.75406      .   S
    C15    O75       0.48599      .   S
    C60    O75       0.48599      .   S
    C60    O76       0.50391      .   S
    C14    O76       0.50391      .   S
    C47    O77       0.64175      .   S
    C61    O77       0.64175      .   S
    C47    O78       0.63336      .   S
    C62    O78       0.63336  1_565   S
    C62    O79       1.37627      .   S
    C2     O79       1.37627      .   S
    C3     O80       1.36738      .   S
    C59    O80       1.36738  1_655   S
    C59    O81       0.63359      .   S
    C41    O81       0.63359      .   S
    C58    O82       0.64179      .   S
    C41    O82       0.64179      .   S
    C41    O83       0.75393      .   S
    C38    O83       0.75393      .   S
    C19    O84       0.50361      .   S
    C63    O84       0.50361  1_545   S
    C63    O85       0.48597      .   S
    C20    O85       0.48597      .   S
    C38    O86       0.69950      .   S
    C39    O86       0.69950      .   S
    C38    O87       0.70096      .   S
    C37    O87       0.70096      .   S
    C17    O88       0.54529      .   S
    C39    O88       0.54529      .   S
    C16    O89       0.54568      .   S
    C37    O89       0.54568      .   S
    C39    O90       0.69466      .   S
    C40    O90       0.69466      .   S
    C37    O91       0.66936      .   S
    C50    O91       0.66936      .   S
    C50    O92       0.67640      .   S
    C36    O92       0.67640      .   S
    C40    O93       0.54709      .   S
    C18    O93       0.54709      .   S
    C40    O94       0.70229      .   S
    C36    O94       0.70229      .   S
    C36    O95       0.74275      .   S
    C24    O95       0.74275      .   S
    C24    O96       0.70233      .   S
    C28    O96       0.70233      .   S
    C24    O97       0.67640      .   S
    C48    O97       0.67640      .   S
    C8     O98       0.54598      .   S
    C28    O98       0.54598      .   S
    C28    O99       0.69478      .   S
    C27    O99       0.69478      .   S
    C48    O100      0.66931      .   S
    C25    O100      0.66931      .   S
    C25    O101      0.54565      .   S
    C6     O101      0.54565      .   S
    C25    O102      0.70098      .   S
    C26    O102      0.70098      .   S
    C27    O103      0.54531      .   S
    C7     O103      0.54531      .   S
    C27    O104      0.69952      .   S
    C26    O104      0.69952      .   S
    C26    O105      0.75406      .   S
    C29    O105      0.75406      .   S
    C10    O106      0.48599      .   S
    C57    O106      0.48599      .   S
    C57    O107      0.50380  1_565   S
    C9     O107      0.50380      .   S
    C29    O108      0.64175      .   S
    C52    O108      0.64175      .   S
    C29    O109      0.63346      .   S
    C53    O109      0.63346      .   S
    C53    O110      1.37617  1_455   S
    C1     O110      1.37617      .   S
    C0     O111      1.36738      .   S
    C56    O111      1.36738      .   S
    C56    O112      0.63343  1_545   S
    C35    O112      0.63343      .   S
    C55    O113      0.64178      .   S
    C35    O113      0.64178      .   S
    C35    O114      0.75393      .   S
    C32    O114      0.75393      .   S
    C4     O115      0.50371      .   S
    C54    O115      0.50371      .   S
    C54    O116      0.48598      .   S
    C5     O116      0.48598      .   S
    C32    O117      0.69949      .   S
    C33    O117      0.69949      .   S
    C32    O118      0.70085      .   S
    C31    O118      0.70085  1_545   S
    C12    O119      0.54529      .   S
    C33    O119      0.54529  1_455   S
    C11    O120      0.54567      .   S
    C31    O120      0.54567      .   S
    C33    O121      0.69466  1_455   S
    C34    O121      0.69466      .   S
    C31    O122      0.66934      .   S
    C49    O122      0.66934      .   S
    C49    O123      0.67616      .   S
    C30    O123      0.67616  1_565   S
    C34    O124      0.54705      .   S
    C13    O124      0.54705      .   S
    C34    O125      0.70229      .   S
    C30    O125      0.70229  1_455   S
    C52    O126      1.38929      .   S
    C0     O126      1.38929  1_655   S
    C53    O127      1.54384  1_455   S
    C0     O127      1.54384      .   S
    C54    O128      1.44405      .   S
    C0     O128      1.44405      .   S
    C55    O129      1.39404      .   S
    C1     O129      1.39404      .   S
    C56    O130      1.53372  1_545   S
    C1     O130      1.53372      .   S
    C57    O131      1.43412  1_455   S
    C1     O131      1.43412      .   S
    C58    O132      1.39410      .   S
    C2     O132      1.39410  1_455   S
    C59    O133      1.53363  1_655   S
    C2     O133      1.53363      .   S
    C60    O134      1.43418      .   S
    C2     O134      1.43418      .   S
    C61    O135      1.38928      .   S
    C3     O135      1.38928      .   S
    C62    O136      1.54372  1_565   S
    C3     O136      1.54372      .   S
    C63    O137      1.44405  1_655   S
    C3     O137      1.44405      .   S
