# CIF file generated by openbabel 2.4.90, see http://openbabel.sf.net
data_I
_chemical_name_common ''
_cell_length_a 20.451
_cell_length_b 24.817
_cell_length_c 15.846
_cell_angle_alpha 89.76
_cell_angle_beta 89.797
_cell_angle_gamma 96.677
_space_group_name_H-M_alt 'P 1'
_space_group_name_Hall 'P 1'
loop_
    _symmetry_equiv_pos_as_xyz
    x,y,z
loop_
    _atom_site_label
    _atom_site_type_symbol
    _atom_site_fract_x
    _atom_site_fract_y
    _atom_site_fract_z
    _atom_site_occupancy
    H0      H    0.30235   0.20987   0.95560   1.000
    H1      H    0.30235   0.70978   0.95586   1.000
    H2      H    0.80240   0.20974   0.95586   1.000
    H3      H    0.80243   0.71051   0.95644   1.000
    H4      H    0.20954   0.09679   0.77511   1.000
    H5      H    0.20963   0.59676   0.77510   1.000
    H6      H    0.70963   0.09677   0.77515   1.000
    H7      H    0.70899   0.59685   0.77717   1.000
    H8      H    0.41881   0.10616   0.81512   1.000
    H9      H    0.41890   0.60623   0.81517   1.000
    H10     H    0.91890   0.10617   0.81513   1.000
    H11     H    0.91831   0.60605   0.81660   1.000
    H12     H    0.44781   0.03991   0.45560   1.000
    H13     H    0.44774   0.53909   0.45484   1.000
    H14     H    0.94773   0.03905   0.45465   1.000
    H15     H    0.94775   0.53941   0.45593   1.000
    H16     H    0.04103   0.15310   0.27352   1.000
    H17     H    0.04095   0.65302   0.27410   1.000
    H18     H    0.54095   0.15359   0.27383   1.000
    H19     H    0.54106   0.65311   0.27368   1.000
    H20     H    0.33139   0.14323   0.31397   1.000
    H21     H    0.33160   0.64327   0.31448   1.000
    H22     H    0.83160   0.14332   0.31445   1.000
    H23     H    0.83150   0.64315   0.31487   1.000
    H24     H    0.19787   0.29022   0.04230   1.000
    H25     H    0.19773   0.78926   0.04348   1.000
    H26     H    0.69770   0.28932   0.04346   1.000
    H27     H    0.69784   0.79005   0.04359   1.000
    H28     H    0.29110   0.40350   0.22225   1.000
    H29     H    0.29109   0.90304   0.22260   1.000
    H30     H    0.79108   0.40303   0.22270   1.000
    H31     H    0.79065   0.90331   0.22389   1.000
    H32     H    0.08171   0.39392   0.18322   1.000
    H33     H    0.08173   0.89365   0.18328   1.000
    H34     H    0.58175   0.39378   0.18321   1.000
    H35     H    0.58146   0.89411   0.18349   1.000
    H36     H    0.05217   0.46038   0.54405   1.000
    H37     H    0.05203   0.95996   0.54350   1.000
    H38     H    0.55211   0.46001   0.54370   1.000
    H39     H    0.55205   0.96017   0.54348   1.000
    H40     H    0.45918   0.34660   0.72601   1.000
    H41     H    0.45903   0.84657   0.72543   1.000
    H42     H    0.95902   0.34681   0.72590   1.000
    H43     H    0.95916   0.84659   0.72591   1.000
    H44     H    0.16849   0.35679   0.68529   1.000
    H45     H    0.16863   0.85677   0.68512   1.000
    H46     H    0.66868   0.35683   0.68541   1.000
    H47     H    0.66848   0.85653   0.68445   1.000
    C48     C    0.36735   0.16019   0.89104   1.000
    C49     C    0.36739   0.66021   0.89113   1.000
    C50     C    0.86742   0.16017   0.89110   1.000
    C51     C    0.86714   0.66045   0.89215   1.000
    C52     C    0.30629   0.17783   0.90975   1.000
    C53     C    0.30632   0.67780   0.90988   1.000
    C54     C    0.80635   0.17777   0.90987   1.000
    C55     C    0.80620   0.67828   0.91084   1.000
    C56     C    0.24967   0.15526   0.86749   1.000
    C57     C    0.24972   0.65523   0.86757   1.000
    C58     C    0.74974   0.15522   0.86750   1.000
    C59     C    0.74944   0.65561   0.86000   1.000
    C60     C    0.25362   0.11434   0.80789   1.000
    C61     C    0.25369   0.61432   0.80790   1.000
    C62     C    0.75370   0.11431   0.80794   1.000
    C63     C    0.75316   0.61443   0.80972   1.000
    C64     C    0.31457   0.09644   0.78966   1.000
    C65     C    0.31465   0.59644   0.78975   1.000
    C66     C    0.81465   0.09642   0.78972   1.000
    C67     C    0.81403   0.59639   0.79150   1.000
    C68     C    0.37144   0.11965   0.83059   1.000
    C69     C    0.37152   0.61968   0.83065   1.000
    C70     C    0.87153   0.11964   0.83062   1.000
    C71     C    0.87102   0.61967   0.83208   1.000
    C72     C    0.50318   0.86426   0.69230   1.000
    C73     C    0.06416   0.34672   0.71111   1.000
    C74     C    0.06430   0.84660   0.71090   1.000
    C75     C    0.56433   0.34664   0.71115   1.000
    C76     C    0.38279   0.08929   0.39040   1.000
    C77     C    0.38288   0.58898   0.39041   1.000
    C78     C    0.88287   0.08898   0.39030   1.000
    C79     C    0.88284   0.58907   0.39114   1.000
    C80     C    0.44391   0.07195   0.40935   1.000
    C81     C    0.44391   0.57132   0.40887   1.000
    C82     C    0.94390   0.07128   0.40869   1.000
    C83     C    0.94389   0.57151   0.40976   1.000
    C84     C    0.50066   0.09480   0.36685   1.000
    C85     C    0.50066   0.59411   0.36630   1.000
    C86     C    0.00000   0.09409   0.36613   1.000
    C87     C    0.00000   0.59423   0.36707   1.000
    C88     C    0.49678   0.13580   0.30684   1.000
    C89     C    0.49688   0.63535   0.30660   1.000
    C90     C    0.99686   0.13534   0.30651   1.000
    C91     C    0.99679   0.63531   0.30717   1.000
    C92     C    0.43577   0.15347   0.28850   1.000
    C93     C    0.43594   0.65325   0.28864   1.000
    C94     C    0.93592   0.15325   0.28855   1.000
    C95     C    0.93583   0.65316   0.28902   1.000
    C96     C    0.37877   0.12991   0.32961   1.000
    C97     C    0.37893   0.62976   0.32984   1.000
    C98     C    0.87892   0.12977   0.32975   1.000
    C99     C    0.87885   0.62970   0.33031   1.000
    C100    C    0.13299   0.33984   0.10723   1.000
    C101    C    0.13295   0.83925   0.10778   1.000
    C102    C    0.63294   0.33936   0.10772   1.000
    C103    C    0.63286   0.83984   0.10800   1.000
    C104    C    0.19402   0.32229   0.08814   1.000
    C105    C    0.19392   0.82149   0.08905   1.000
    C106    C    0.69390   0.32155   0.08900   1.000
    C107    C    0.69390   0.82214   0.08938   1.000
    C108    C    0.25077   0.34500   0.12996   1.000
    C109    C    0.25066   0.84422   0.13088   1.000
    C110    C    0.75065   0.34425   0.13090   1.000
    C111    C    0.75051   0.84474   0.13165   1.000
    C112    C    0.24695   0.38594   0.18963   1.000
    C113    C    0.24691   0.88542   0.19010   1.000
    C114    C    0.74691   0.38544   0.19015   1.000
    C115    C    0.74659   0.88579   0.19100   1.000
    C116    C    0.18603   0.40381   0.20810   1.000
    C117    C    0.18602   0.90342   0.20835   1.000
    C118    C    0.68602   0.40347   0.20836   1.000
    C119    C    0.68568   0.90382   0.20895   1.000
    C120    C    0.12905   0.38048   0.16753   1.000
    C121    C    0.12904   0.88006   0.16700   1.000
    C122    C    0.62905   0.38017   0.16770   1.000
    C123    C    0.62881   0.88056   0.16813   1.000
    C124    C    0.11712   0.41081   0.60897   1.000
    C125    C    0.11713   0.91063   0.60864   1.000
    C126    C    0.61721   0.41071   0.60892   1.000
    C127    C    0.61706   0.91058   0.60825   1.000
    C128    C    0.05605   0.42832   0.59028   1.000
    C129    C    0.05600   0.92799   0.58987   1.000
    C130    C    0.55608   0.42804   0.59008   1.000
    C131    C    0.55597   0.92806   0.58961   1.000
    C132    C    0.99933   0.40556   0.63295   1.000
    C133    C    0.99934   0.90523   0.63260   1.000
    C134    C    0.49939   0.40527   0.63281   1.000
    C135    C    0.49929   0.90527   0.63234   1.000
    C136    C    0.00318   0.36452   0.69292   1.000
    C137    C    0.00328   0.86430   0.69276   1.000
    C138    C    0.50332   0.36433   0.69290   1.000
    C139    C    0.56416   0.84646   0.71041   1.000
    C140    C    0.12113   0.37020   0.66983   1.000
    C141    C    0.12123   0.87010   0.66961   1.000
    C142    C    0.62129   0.37016   0.66986   1.000
    C143    C    0.62110   0.86993   0.66904   1.000
loop_
    _geom_bond_atom_site_label_1
    _geom_bond_atom_site_label_2
    _geom_bond_distance
    _geom_bond_site_symmetry_2
    _ccdc_geom_bond_type
    H24    C104      1.08919      .   S
    H26    C106      1.08886      .   S
    H25    C105      1.08923      .   S
    H27    C107      1.08920      .   S
    C104   C100      1.40132      .   S
    C104   C108      1.40010      .   S
    C106   C102      1.40157      .   S
    C106   C110      1.40050      .   S
    C105   C101      1.40136      .   S
    C105   C109      1.40010      .   S
    C107   C103      1.40150      .   S
    C107   C111      1.40035      .   S
    C100   C120      1.40106      .   S
    C102   C122      1.40045      .   S
    C101   C121      1.39254      .   S
    C103   C123      1.40103      .   S
    C108   C112      1.39928      .   S
    C109   C113      1.39914      .   S
    C110   C114      1.39923      .   S
    C111   C115      1.39821      .   S
    C121   H33       1.09143      .   S
    C121   C117      1.40517      .   S
    C120   H32       1.08853      .   S
    C120   C116      1.39912      .   S
    C122   H34       1.08874      .   S
    C122   C118      1.39957      .   S
    C123   H35       1.08852      .   S
    C123   C119      1.39883      .   S
    C112   C116      1.40074      .   S
    C112   H28       1.08902      .   S
    C113   C117      1.40073      .   S
    C113   H29       1.08897      .   S
    C114   C118      1.40074      .   S
    C114   H30       1.08904      .   S
    C115   C119      1.40037      .   S
    C115   H31       1.08926      .   S
    H16    C90       1.08899  1_455   S
    H19    C89       1.08856      .   S
    H18    C88       1.08907      .   S
    H17    C91       1.08904  1_455   S
    C92    C88       1.40087      .   S
    C92    C96       1.39933      .   S
    C94    C90       1.40083      .   S
    C94    C98       1.39926      .   S
    C93    C89       1.40065      .   S
    C93    C97       1.39938      .   S
    C95    C91       1.40097      .   S
    C95    C99       1.39940      .   S
    C90    C86       1.39714  1_655   S
    C89    C85       1.39963      .   S
    C88    C84       1.39894      .   S
    C91    C87       1.39735  1_655   S
    H20    C96       1.08862      .   S
    H22    C98       1.08858      .   S
    H21    C97       1.08860      .   S
    H23    C99       1.08860      .   S
    C96    C76       1.40092      .   S
    C98    C78       1.40125      .   S
    C97    C77       1.40122      .   S
    C99    C79       1.40146      .   S
    C86    C82       1.38994  1_455   S
    C85    C81       1.40030      .   S
    C84    C80       1.40011      .   S
    C87    C83       1.39037  1_455   S
    C78    C82       1.40155      .   S
    C76    C80       1.40156      .   S
    C77    C81       1.40158      .   S
    C79    C83       1.40144      .   S
    C82    H14       1.08922      .   S
    C81    H13       1.08915      .   S
    C80    H12       1.08911      .   S
    C83    H15       1.08919      .   S
    H39    C131      1.08914      .   S
    H37    C129      1.08917      .   S
    H38    C130      1.08924      .   S
    H36    C128      1.08922      .   S
    C131   C127      1.40133      .   S
    C131   C135      1.40025      .   S
    C129   C125      1.40134      .   S
    C129   C133      1.39983  1_455   S
    C130   C126      1.40143      .   S
    C130   C134      1.40024      .   S
    C128   C124      1.40142      .   S
    C128   C132      1.40014  1_455   S
    C127   C143      1.40154      .   S
    C125   C141      1.40162      .   S
    C126   C142      1.40153      .   S
    C124   C140      1.40147      .   S
    C135   C72       1.39876      .   S
    C133   C137      1.39948  1_655   S
    C134   C138      1.39883      .   S
    C132   C136      1.39913  1_655   S
    C143   H47       1.08859      .   S
    C143   C139      1.39949      .   S
    C141   H45       1.08866      .   S
    C141   C74       1.39902      .   S
    C140   H44       1.08857      .   S
    C140   C73       1.39946      .   S
    C142   H46       1.08862      .   S
    C142   C75       1.39954      .   S
    C72    C139      1.40077      .   S
    C72    H41       1.08903      .   S
    C137   C74       1.40065      .   S
    C137   H43       1.08901  1_455   S
    C138   C75       1.40084      .   S
    C138   H40       1.08903      .   S
    C136   C73       1.40099      .   S
    C136   H42       1.08837  1_455   S
    H5     C61       1.08909      .   S
    H4     C60       1.08904      .   S
    H6     C62       1.08898      .   S
    H7     C63       1.08903      .   S
    C64    C60       1.40063      .   S
    C64    C68       1.39932      .   S
    C66    C62       1.40058      .   S
    C66    C70       1.39916      .   S
    C65    C61       1.40042      .   S
    C65    C69       1.39920      .   S
    C67    C63       1.40070      .   S
    C67    C71       1.39903      .   S
    C60    C56       1.39868      .   S
    C61    C57       1.39933      .   S
    C62    C58       1.39804      .   S
    C63    C59       1.30744      .   S
    H8     C68       1.08859      .   S
    H10    C70       1.08856      .   S
    H9     C69       1.08859      .   S
    H11    C71       1.08852      .   S
    C68    C48       1.40148      .   S
    C70    C50       1.40155      .   S
    C69    C49       1.40159      .   S
    C71    C51       1.40088      .   S
    C59    C55       1.47361      .   S
    C56    C52       1.40024      .   S
    C58    C54       1.40074      .   S
    C57    C53       1.40030      .   S
    C48    C52       1.40152      .   S
    C50    C54       1.40154      .   S
    C49    C53       1.40147      .   S
    C51    C55       1.40139      .   S
    C52    H0        1.08892      .   S
    C54    H2        1.08925      .   S
    C53    H1        1.08922      .   S
    C55    H3        1.08927      .   S
