# CIF file generated by openbabel 2.4.90, see http://openbabel.sf.net
data_I
_chemical_name_common ''
_cell_length_a 20.451
_cell_length_b 24.817
_cell_length_c 15.846
_cell_angle_alpha 89.76
_cell_angle_beta 89.797
_cell_angle_gamma 96.677
_space_group_name_H-M_alt 'P 1'
_space_group_name_Hall 'P 1'
loop_
    _symmetry_equiv_pos_as_xyz
    x,y,z
loop_
    _atom_site_label
    _atom_site_type_symbol
    _atom_site_fract_x
    _atom_site_fract_y
    _atom_site_fract_z
    _atom_site_occupancy
    Y0      Y    0.07940   0.72864   0.89529   1.000
    Y1      Y    0.57943   0.22863   0.89538   1.000
    Y2      Y    0.57924   0.72916   0.89573   1.000
    Y3      Y    0.17072   0.02036   0.39273   1.000
    Y4      Y    0.17064   0.52044   0.39309   1.000
    Y5      Y    0.67047   0.02086   0.39313   1.000
    Y6      Y    0.67073   0.52035   0.39289   1.000
    Y7      Y    0.42062   0.27104   0.10356   1.000
    Y8      Y    0.42095   0.77083   0.10389   1.000
    Y9      Y    0.92096   0.27084   0.10382   1.000
    Y10     Y    0.92061   0.77100   0.10462   1.000
    Y11     Y    0.32951   0.47909   0.60582   1.000
    Y12     Y    0.32946   0.97920   0.60560   1.000
    Y13     Y    0.82941   0.47947   0.60701   1.000
    Y14     Y    0.82947   0.97911   0.60570   1.000
    Y15     Y    0.07942   0.22874   0.89539   1.000
    C16     C    0.42812   0.18589   0.93280   1.000
    C17     C    0.42817   0.68594   0.93281   1.000
    C18     C    0.92820   0.18589   0.93281   1.000
    C19     C    0.92809   0.68619   0.93339   1.000
    C20     C    0.18598   0.17672   0.88443   1.000
    C21     C    0.18601   0.67668   0.88447   1.000
    C22     C    0.68604   0.17668   0.88447   1.000
    C23     C    0.68588   0.67732   0.88590   1.000
    C24     C    0.31894   0.05341   0.72556   1.000
    C25     C    0.31901   0.55336   0.72575   1.000
    C26     C    0.81900   0.05335   0.72568   1.000
    C27     C    0.81854   0.55322   0.72768   1.000
    C28     C    0.32199   0.06324   0.43260   1.000
    C29     C    0.32205   0.56307   0.43270   1.000
    C30     C    0.82205   0.06310   0.43265   1.000
    C31     C    0.82202   0.56321   0.43352   1.000
    C32     C    0.06425   0.07244   0.38275   1.000
    C33     C    0.06425   0.57266   0.38386   1.000
    C34     C    0.56436   0.07344   0.38402   1.000
    C35     C    0.56427   0.57246   0.38292   1.000
    C36     C    0.43137   0.19670   0.22422   1.000
    C37     C    0.43153   0.69653   0.22440   1.000
    C38     C    0.93150   0.19656   0.22440   1.000
    C39     C    0.93140   0.69637   0.22467   1.000
    O40     O    0.01639   0.32580   0.09214   1.000
    O41     O    0.01633   0.82516   0.09240   1.000
    O42     O    0.51633   0.32553   0.09220   1.000
    O43     O    0.51629   0.82598   0.09239   1.000
    O44     O    0.07731   0.27976   0.00706   1.000
    C45     C    0.07203   0.31387   0.06631   1.000
    C46     C    0.07204   0.81340   0.06650   1.000
    C47     C    0.57199   0.31357   0.06650   1.000
    C48     C    0.57196   0.81404   0.06674   1.000
    C49     C    0.31440   0.32351   0.11264   1.000
    C50     C    0.31425   0.82258   0.11393   1.000
    C51     C    0.81424   0.32259   0.11394   1.000
    C52     C    0.81417   0.82316   0.11506   1.000
    C53     C    0.18148   0.44681   0.27219   1.000
    C54     C    0.18151   0.94663   0.27212   1.000
    C55     C    0.68151   0.44665   0.27216   1.000
    C56     C    0.68120   0.94700   0.27265   1.000
    C57     C    0.17793   0.43671   0.56664   1.000
    C58     C    0.17792   0.93662   0.56632   1.000
    C59     C    0.67800   0.43672   0.56660   1.000
    C60     C    0.67788   0.93661   0.56607   1.000
    C61     C    0.43569   0.42664   0.61576   1.000
    C62     C    0.43563   0.92676   0.61550   1.000
    C63     C    0.93569   0.42710   0.61609   1.000
    C64     C    0.93565   0.92664   0.61569   1.000
    C65     C    0.06861   0.30351   0.77546   1.000
    C66     C    0.06875   0.80345   0.77540   1.000
    C67     C    0.56876   0.30344   0.77551   1.000
    C68     C    0.56863   0.80338   0.77497   1.000
    O69     O    0.48389   0.17396   0.90743   1.000
    O70     O    0.48392   0.67404   0.90741   1.000
    O71     O    0.98396   0.17397   0.90740   1.000
    O72     O    0.98374   0.67419   0.90767   1.000
    O73     O    0.42257   0.21979   0.99227   1.000
    O74     O    0.42265   0.71988   0.99227   1.000
    O75     O    0.92267   0.21982   0.99220   1.000
    O76     O    0.92275   0.72014   0.99282   1.000
    O77     O    0.18313   0.21322   0.94103   1.000
    O78     O    0.18314   0.71320   0.94102   1.000
    O79     O    0.68317   0.21319   0.94103   1.000
    O80     O    0.68351   0.71493   0.94080   1.000
    O81     O    0.13446   0.16017   0.84107   1.000
    O82     O    0.13451   0.66010   0.84100   1.000
    O83     O    0.63454   0.16012   0.84107   1.000
    O84     O    0.63389   0.65983   0.84409   1.000
    O85     O    0.26652   0.03015   0.69098   1.000
    O86     O    0.26655   0.52997   0.69146   1.000
    O87     O    0.76655   0.03001   0.69133   1.000
    O88     O    0.76631   0.53014   0.69244   1.000
    O89     O    0.37546   0.03963   0.70426   1.000
    O90     O    0.37554   0.53965   0.70427   1.000
    O91     O    0.87552   0.03963   0.70423   1.000
    O92     O    0.87513   0.53926   0.70717   1.000
    O93     O    0.26614   0.07440   0.40675   1.000
    O94     O    0.26621   0.57432   0.40689   1.000
    O95     O    0.76621   0.07441   0.40692   1.000
    O96     O    0.76622   0.57420   0.40718   1.000
    O97     O    0.32766   0.02984   0.49304   1.000
    O98     O    0.32767   0.52971   0.49320   1.000
    O99     O    0.82768   0.02975   0.49316   1.000
    O100    O    0.82760   0.53023   0.49458   1.000
    O101    O    0.06644   0.03466   0.43784   1.000
    O102    O    0.06671   0.53538   0.43974   1.000
    O103    O    0.56692   0.03665   0.44064   1.000
    O104    O    0.56646   0.53471   0.43806   1.000
    O105    O    0.11637   0.09008   0.34059   1.000
    O106    O    0.11612   0.58989   0.34087   1.000
    O107    O    0.61613   0.09024   0.34056   1.000
    O108    O    0.61637   0.59005   0.34068   1.000
    O109    O    0.48369   0.21992   0.18867   1.000
    O110    O    0.48386   0.71978   0.18880   1.000
    O111    O    0.98384   0.21981   0.18883   1.000
    O112    O    0.98370   0.71964   0.18909   1.000
    O113    O    0.37481   0.21065   0.20371   1.000
    O114    O    0.37499   0.71055   0.20408   1.000
    O115    O    0.87497   0.21057   0.20400   1.000
    O116    O    0.87484   0.71033   0.20422   1.000
    O117    O    0.07746   0.77956   0.00701   1.000
    O118    O    0.57733   0.27959   0.00710   1.000
    O119    O    0.57730   0.77999   0.00741   1.000
    O120    O    0.31710   0.28686   0.05630   1.000
    O121    O    0.31660   0.78496   0.05908   1.000
    O122    O    0.81658   0.28498   0.05907   1.000
    O123    O    0.81700   0.78652   0.05870   1.000
    O124    O    0.36606   0.34017   0.15575   1.000
    O125    O    0.36625   0.84011   0.15573   1.000
    O126    O    0.86624   0.34011   0.15573   1.000
    O127    O    0.86563   0.83973   0.15852   1.000
    O128    O    0.23370   0.46983   0.30755   1.000
    O129    O    0.23375   0.96970   0.30741   1.000
    O130    O    0.73374   0.46971   0.30748   1.000
    O131    O    0.73349   0.97005   0.30777   1.000
    O132    O    0.12488   0.46072   0.29281   1.000
    O133    O    0.12495   0.96065   0.29258   1.000
    O134    O    0.62494   0.46065   0.29265   1.000
    O135    O    0.62463   0.96099   0.29317   1.000
    O136    O    0.23373   0.42557   0.59276   1.000
    O137    O    0.23372   0.92562   0.59263   1.000
    O138    O    0.73384   0.42576   0.59285   1.000
    O139    O    0.73366   0.92567   0.59256   1.000
    O140    O    0.17237   0.46987   0.50582   1.000
    O141    O    0.17235   0.96968   0.50535   1.000
    O142    O    0.67236   0.46982   0.50570   1.000
    O143    O    0.67234   0.96967   0.50509   1.000
    O144    O    0.43312   0.46336   0.55904   1.000
    O145    O    0.43307   0.96355   0.55893   1.000
    O146    O    0.93320   0.46425   0.56000   1.000
    O147    O    0.93309   0.96338   0.55900   1.000
    O148    O    0.38393   0.40990   0.65927   1.000
    O149    O    0.38390   0.90999   0.65910   1.000
    O150    O    0.88385   0.40999   0.65920   1.000
    O151    O    0.88390   0.90990   0.65920   1.000
    O152    O    0.01631   0.28020   0.81102   1.000
    O153    O    0.01643   0.78018   0.81098   1.000
    O154    O    0.51644   0.28016   0.81105   1.000
    O155    O    0.51633   0.78031   0.81088   1.000
    O156    O    0.12518   0.28956   0.79590   1.000
    O157    O    0.12530   0.78952   0.79591   1.000
    O158    O    0.62531   0.28950   0.79600   1.000
    O159    O    0.62516   0.78940   0.79530   1.000
loop_
    _geom_bond_atom_site_label_1
    _geom_bond_atom_site_label_2
    _geom_bond_distance
    _geom_bond_site_symmetry_2
    _ccdc_geom_bond_type
    O117   C46       1.27815      .   S
    O117   Y0        2.18230  1_554   S
    O44    C45       1.27947      .   S
    O44    Y15       2.18343  1_554   S
    O118   C47       1.27916      .   S
    O118   Y1        2.18315  1_554   S
    O119   C48       1.27960      .   S
    O119   Y2        2.18041  1_554   S
    O120   Y7        2.32364      .   S
    O120   C49       1.28291      .   S
    O123   Y10       2.31656      .   S
    O123   C52       1.28314      .   S
    O122   Y9        2.31634      .   S
    O122   C51       1.28318      .   S
    O121   Y8        2.31606      .   S
    O121   C50       1.28309      .   S
    C45    O40       1.27509      .   S
    C46    O41       1.27543      .   S
    C47    O42       1.27522      .   S
    C48    O43       1.27493      .   S
    O40    Y9        2.25390  1_455   S
    O42    Y7        2.25217      .   S
    O43    Y8        2.25450      .   S
    O41    Y10       2.24931  1_455   S
    Y7     O124      2.30722      .   S
    Y7     O109      2.33884      .   S
    Y7     O113      2.29909      .   S
    Y7     O73       2.18154  1_554   S
    Y9     O126      2.31017      .   S
    Y9     O111      2.33429      .   S
    Y9     O115      2.29872      .   S
    Y9     O75       2.18202  1_554   S
    Y8     O125      2.30989      .   S
    Y8     O110      2.33401      .   S
    Y8     O114      2.29881      .   S
    Y8     O74       2.18108  1_554   S
    Y10    O127      2.31392      .   S
    Y10    O112      2.33700      .   S
    Y10    O116      2.29707      .   S
    Y10    O76       2.18289  1_554   S
    C49    O124      1.28816      .   S
    C50    O125      1.28789      .   S
    C51    O126      1.28785      .   S
    C52    O127      1.28771      .   S
    O109   C36       1.28219      .   S
    O110   C37       1.28287      .   S
    O111   C38       1.28282      .   S
    O112   C39       1.28248      .   S
    O113   C36       1.28767      .   S
    O115   C38       1.28733      .   S
    O114   C37       1.28705      .   S
    O116   C39       1.28768      .   S
    C54    O133      1.28693      .   S
    C54    O129      1.28313      .   S
    C55    O134      1.28696      .   S
    C55    O130      1.28314      .   S
    C53    O132      1.28707      .   S
    C53    O128      1.28298      .   S
    C56    O135      1.28700      .   S
    C56    O131      1.28264      .   S
    O133   Y3        2.30191  1_565   S
    O134   Y6        2.30257      .   S
    O132   Y4        2.30327      .   S
    O135   Y5        2.30249  1_565   S
    O129   Y3        2.33432  1_565   S
    O130   Y6        2.33451      .   S
    O128   Y4        2.33597      .   S
    O131   Y5        2.33674  1_565   S
    O107   C34       1.28795      .   S
    O107   Y5        2.30925      .   S
    O105   C32       1.28761      .   S
    O105   Y3        2.31375      .   S
    O108   C35       1.28767      .   S
    O108   Y6        2.31399      .   S
    O106   C33       1.28804      .   S
    O106   Y4        2.31075      .   S
    C32    O101      1.28303      .   S
    C35    O104      1.28305      .   S
    C33    O102      1.28331      .   S
    C34    O103      1.28293      .   S
    Y3     O93       2.24776      .   S
    Y3     O101      2.31354      .   S
    Y3     O141      2.18156  1_545   S
    Y6     O96       2.24733      .   S
    Y6     O104      2.31389      .   S
    Y6     O142      2.18172      .   S
    Y4     O94       2.24801      .   S
    Y4     O102      2.31852      .   S
    Y4     O140      2.18164      .   S
    Y5     O95       2.24682      .   S
    Y5     O103      2.32135      .   S
    Y5     O143      2.18080  1_545   S
    O93    C28       1.27484      .   S
    O94    C29       1.27500      .   S
    O95    C30       1.27505      .   S
    O96    C31       1.27494      .   S
    C28    O97       1.27847      .   S
    C30    O99       1.27818      .   S
    C29    O98       1.27824      .   S
    C31    O100      1.27863      .   S
    O97    Y12       2.18047  1_545   S
    O99    Y14       2.18025  1_545   S
    O98    Y11       2.18096      .   S
    O100   Y13       2.18062      .   S
    O143   C60       1.27874      .   S
    O141   C58       1.27888      .   S
    O142   C59       1.27889      .   S
    O140   C57       1.27858      .   S
    O145   Y12       2.31751      .   S
    O145   C62       1.28238      .   S
    O147   Y14       2.31822      .   S
    O147   C64       1.28287      .   S
    O144   Y11       2.31858      .   S
    O144   C61       1.28293      .   S
    O146   Y13       2.31950      .   S
    O146   C63       1.28343      .   S
    C60    O139      1.27498      .   S
    C58    O137      1.27491      .   S
    C59    O138      1.27502      .   S
    C57    O136      1.27491      .   S
    O139   Y14       2.24560      .   S
    O137   Y12       2.24575      .   S
    O136   Y11       2.24590      .   S
    O138   Y13       2.24664      .   S
    Y12    O149      2.31249      .   S
    Y12    O85       2.33806  1_565   S
    Y12    O89       2.29784  1_565   S
    Y14    O151      2.31216      .   S
    Y14    O87       2.33941  1_565   S
    Y14    O91       2.29817  1_565   S
    Y11    O148      2.31177      .   S
    Y11    O86       2.33959      .   S
    Y11    O90       2.29771      .   S
    Y13    O150      2.31027      .   S
    Y13    O88       2.33644      .   S
    Y13    O92       2.30272      .   S
    C62    O149      1.28823      .   S
    C64    O151      1.28770      .   S
    C61    O148      1.28785      .   S
    C63    O150      1.28793      .   S
    O85    C24       1.28270      .   S
    O87    C26       1.28252      .   S
    O86    C25       1.28250      .   S
    O88    C27       1.28278      .   S
    O91    C26       1.28739      .   S
    O89    C24       1.28736      .   S
    O90    C25       1.28742      .   S
    O92    C27       1.28717      .   S
    C68    O159      1.28683      .   S
    C68    O155      1.28304      .   S
    C66    O157      1.28733      .   S
    C66    O153      1.28273      .   S
    C65    O156      1.28753      .   S
    C65    O152      1.28260      .   S
    C67    O158      1.28734      .   S
    C67    O154      1.28270      .   S
    O159   Y2        2.30058      .   S
    O156   Y15       2.29796      .   S
    O157   Y0        2.29866      .   S
    O158   Y1        2.29827      .   S
    O155   Y2        2.33497      .   S
    O153   Y0        2.33679      .   S
    O152   Y15       2.33778      .   S
    O154   Y1        2.33705      .   S
    O82    C21       1.28838      .   S
    O82    Y0        2.31385      .   S
    O83    C22       1.28765      .   S
    O83    Y1        2.31367      .   S
    O81    C20       1.28758      .   S
    O81    Y15       2.31392      .   S
    O84    C23       1.28762      .   S
    O84    Y2        2.30907      .   S
    C20    O77       1.28327      .   S
    C22    O79       1.28317      .   S
    C21    O78       1.28315      .   S
    C23    O80       1.28339      .   S
    Y0     O72       2.25203  1_455   S
    Y0     O78       2.31742      .   S
    Y1     O69       2.25250      .   S
    Y1     O79       2.31697      .   S
    Y15    O71       2.25238  1_455   S
    Y15    O77       2.31702      .   S
    Y2     O70       2.25390      .   S
    Y2     O80       2.31657      .   S
    O71    C18       1.27539      .   S
    O70    C17       1.27493      .   S
    O69    C16       1.27524      .   S
    O72    C19       1.27542      .   S
    C16    O73       1.27940      .   S
    C18    O75       1.27900      .   S
    C17    O74       1.27975      .   S
    C19    O76       1.27904      .   S
