# CIF file generated by openbabel 2.4.90, see http://openbabel.sf.net
data_I
_chemical_name_common ''
_cell_length_a 20.451
_cell_length_b 24.817
_cell_length_c 15.846
_cell_angle_alpha 89.76
_cell_angle_beta 89.797
_cell_angle_gamma 96.677
_space_group_name_H-M_alt 'P 1'
_space_group_name_Hall 'P 1'
loop_
    _symmetry_equiv_pos_as_xyz
    x,y,z
loop_
    _atom_site_label
    _atom_site_type_symbol
    _atom_site_fract_x
    _atom_site_fract_y
    _atom_site_fract_z
    _atom_site_occupancy
    C0      C    0.42812   0.18589   0.93280   1.000
    C1      C    0.42817   0.68594   0.93281   1.000
    C2      C    0.92820   0.18589   0.93281   1.000
    C3      C    0.92809   0.68619   0.93339   1.000
    C4      C    0.18598   0.17672   0.88443   1.000
    C5      C    0.18601   0.67668   0.88447   1.000
    C6      C    0.68604   0.17668   0.88447   1.000
    C7      C    0.68588   0.67732   0.88590   1.000
    C8      C    0.31894   0.05341   0.72556   1.000
    C9      C    0.31901   0.55336   0.72575   1.000
    C10     C    0.81900   0.05335   0.72568   1.000
    C11     C    0.81854   0.55322   0.72768   1.000
    C12     C    0.32199   0.06324   0.43260   1.000
    C13     C    0.32205   0.56307   0.43270   1.000
    C14     C    0.82205   0.06310   0.43265   1.000
    C15     C    0.82202   0.56321   0.43352   1.000
    C16     C    0.06425   0.07244   0.38275   1.000
    C17     C    0.06425   0.57266   0.38386   1.000
    C18     C    0.56436   0.07344   0.38402   1.000
    C19     C    0.56427   0.57246   0.38292   1.000
    C20     C    0.43137   0.19670   0.22422   1.000
    C21     C    0.43153   0.69653   0.22440   1.000
    C22     C    0.93150   0.19656   0.22440   1.000
    C23     C    0.93140   0.69637   0.22467   1.000
    C24     C    0.07203   0.31387   0.06631   1.000
    C25     C    0.07204   0.81340   0.06650   1.000
    C26     C    0.57199   0.31357   0.06650   1.000
    C27     C    0.57196   0.81404   0.06674   1.000
    C28     C    0.31440   0.32351   0.11264   1.000
    C29     C    0.31425   0.82258   0.11393   1.000
    C30     C    0.81424   0.32259   0.11394   1.000
    C31     C    0.81417   0.82316   0.11506   1.000
    C32     C    0.18148   0.44681   0.27219   1.000
    C33     C    0.18151   0.94663   0.27212   1.000
    C34     C    0.68151   0.44665   0.27216   1.000
    C35     C    0.68120   0.94700   0.27265   1.000
    C36     C    0.17793   0.43671   0.56664   1.000
    C37     C    0.17792   0.93662   0.56632   1.000
    C38     C    0.67800   0.43672   0.56660   1.000
    C39     C    0.67788   0.93661   0.56607   1.000
    C40     C    0.43569   0.42664   0.61576   1.000
    C41     C    0.43563   0.92676   0.61550   1.000
    C42     C    0.93569   0.42710   0.61609   1.000
    C43     C    0.93565   0.92664   0.61569   1.000
    C44     C    0.06861   0.30351   0.77546   1.000
    C45     C    0.06875   0.80345   0.77540   1.000
    C46     C    0.56876   0.30344   0.77551   1.000
    C47     C    0.56863   0.80338   0.77497   1.000
