# CIF file generated by openbabel 2.4.90, see http://openbabel.sf.net
data_I
_chemical_name_common ''
_cell_length_a 5.723
_cell_length_b 10.564
_cell_length_c 16.265
_cell_angle_alpha 89.97
_cell_angle_beta 89.969
_cell_angle_gamma 87.555
_space_group_name_H-M_alt 'P 1'
_space_group_name_Hall 'P 1'
loop_
    _symmetry_equiv_pos_as_xyz
    x,y,z
loop_
    _atom_site_label
    _atom_site_type_symbol
    _atom_site_fract_x
    _atom_site_fract_y
    _atom_site_fract_z
    _atom_site_occupancy
    H0      H    0.25520   0.21467   0.64901   1.000
    H1      H    0.09187   0.08357   0.76105   1.000
    H2      H    0.77967   0.33026   0.82082   1.000
    H3      H    0.59116   0.19731   0.92689   1.000
    H4      H    0.74349   0.28667   0.14851   1.000
    H5      H    0.90698   0.41731   0.26061   1.000
    H6      H    0.21861   0.17083   0.32037   1.000
    H7      H    0.40742   0.30322   0.42651   1.000
    H8      H    0.74482   0.78535   0.35107   1.000
    H9      H    0.90815   0.91645   0.23903   1.000
    H10     H    0.22039   0.66973   0.17925   1.000
    H11     H    0.40889   0.80268   0.07318   1.000
    H12     H    0.25654   0.71330   0.85156   1.000
    H13     H    0.09306   0.58266   0.73946   1.000
    H14     H    0.78141   0.82914   0.67971   1.000
    H15     H    0.59261   0.69676   0.57357   1.000
    C16     C    0.53347   0.28313   0.72545   1.000
    C17     C    0.33519   0.21343   0.70964   1.000
    C18     C    0.24304   0.14072   0.77200   1.000
    C19     C    0.62562   0.27798   0.80562   1.000
    C20     C    0.52182   0.20396   0.86451   1.000
    C21     C    0.46527   0.21794   0.22502   1.000
    C22     C    0.66347   0.28774   0.20917   1.000
    C23     C    0.75576   0.36016   0.27158   1.000
    C24     C    0.37283   0.22304   0.30518   1.000
    C25     C    0.47682   0.29675   0.36411   1.000
    C26     C    0.46657   0.71687   0.27462   1.000
    C27     C    0.66483   0.78659   0.29044   1.000
    C28     C    0.75699   0.85930   0.22807   1.000
    C29     C    0.37443   0.72202   0.19445   1.000
    C30     C    0.47823   0.79604   0.13556   1.000
    C31     C    0.53476   0.78203   0.77505   1.000
    C32     C    0.33656   0.71223   0.79091   1.000
    C33     C    0.24427   0.63982   0.72850   1.000
    C34     C    0.62719   0.77693   0.69489   1.000
    C35     C    0.52320   0.70323   0.63596   1.000
    N36     N    0.33403   0.13389   0.84871   1.000
    N37     N    0.66492   0.36666   0.34835   1.000
    N38     N    0.66601   0.86611   0.15136   1.000
    N39     N    0.33510   0.63332   0.65172   1.000
loop_
    _geom_bond_atom_site_label_1
    _geom_bond_atom_site_label_2
    _geom_bond_distance
    _geom_bond_site_symmetry_2
    _ccdc_geom_bond_type
    H11    C30       1.09073      .   S
    C30    N38       1.35546      .   S
    C30    C29       1.38569      .   S
    H4     C22       1.08730      .   S
    N38    C28       1.35302      .   S
    H10    C29       1.08873      .   S
    C29    C26       1.40690      .   S
    C22    C21       1.40275      .   S
    C22    C23       1.38940      .   S
    C21    C24       1.40688      .   S
    C28    H9        1.09070      .   S
    C28    C27       1.38933      .   S
    H5     C23       1.09069      .   S
    C23    N37       1.35301      .   S
    C26    C27       1.40280      .   S
    C27    H8        1.08729      .   S
    C24    H6        1.08876      .   S
    C24    C25       1.38569      .   S
    N37    C25       1.35547      .   S
    C25    H7        1.09073      .   S
    H15    C35       1.09071      .   S
    C35    N39       1.35548      .   S
    C35    C34       1.38567      .   S
    H0     C17       1.08728      .   S
    N39    C33       1.35301      .   S
    H14    C34       1.08875      .   S
    C34    C31       1.40689      .   S
    C17    C16       1.40281      .   S
    C17    C18       1.38932      .   S
    C16    C19       1.40690      .   S
    C33    H13       1.09070      .   S
    C33    C32       1.38940      .   S
    H1     C18       1.09070      .   S
    C18    N36       1.35302      .   S
    C31    C32       1.40274      .   S
    C32    H12       1.08730      .   S
    C19    H2        1.08872      .   S
    C19    C20       1.38569      .   S
    N36    C20       1.35547      .   S
    C20    H3        1.09075      .   S
