# CIF file generated by openbabel 2.4.90, see http://openbabel.sf.net
data_I
_chemical_name_common ''
_cell_length_a 5.723
_cell_length_b 10.564
_cell_length_c 16.265
_cell_angle_alpha 89.97
_cell_angle_beta 89.969
_cell_angle_gamma 87.555
_space_group_name_H-M_alt 'P 1'
_space_group_name_Hall 'P 1'
loop_
    _symmetry_equiv_pos_as_xyz
    x,y,z
loop_
    _atom_site_label
    _atom_site_type_symbol
    _atom_site_fract_x
    _atom_site_fract_y
    _atom_site_fract_z
    _atom_site_occupancy
    Zr0     Zr   0.24840   0.49494   0.56933   1.000
    Zr1     Zr   0.75141   0.00520   0.06925   1.000
    Zr2     Zr   0.75163   0.50505   0.43073   1.000
    Zr3     Zr   0.24861   0.99480   0.93080   1.000
    N4      N    0.43247   0.70694   0.71213   1.000
    O5      O    0.36211   0.63554   0.66133   1.000
    N6      N    0.56756   0.29303   0.28794   1.000
    O7      O    0.63792   0.36444   0.33874   1.000
    N8      N    0.43111   0.20789   0.78837   1.000
    O9      O    0.36121   0.13612   0.83906   1.000
    N10     N    0.56893   0.79211   0.21170   1.000
    O11     O    0.63882   0.86389   0.16100   1.000
    C12     C    0.24335   0.10235   0.11178   1.000
    O13     O    0.41867   0.07959   0.09518   1.000
    O14     O    0.07524   0.07008   0.09708   1.000
    O15     O    0.24736   0.06486   0.05041   1.000
    O16     O    0.36496   0.17027   0.17614   1.000
    C17     C    0.75667   0.89764   0.88829   1.000
    O18     O    0.92478   0.92991   0.90299   1.000
    O19     O    0.58136   0.92040   0.90489   1.000
    O20     O    0.75266   0.93513   0.94966   1.000
    O21     O    0.63507   0.82971   0.82393   1.000
    C22     C    0.24400   0.60179   0.38807   1.000
    O23     O    0.41913   0.57923   0.40474   1.000
    O24     O    0.07579   0.56959   0.40280   1.000
    O25     O    0.24767   0.56464   0.44957   1.000
    O26     O    0.36591   0.66951   0.32362   1.000
    C27     C    0.75604   0.39821   0.61200   1.000
    O28     O    0.58091   0.42076   0.59533   1.000
    O29     O    0.63413   0.33048   0.67645   1.000
    O30     O    0.92425   0.43040   0.59726   1.000
    O31     O    0.75237   0.43536   0.55049   1.000
loop_
    _geom_bond_atom_site_label_1
    _geom_bond_atom_site_label_2
    _geom_bond_distance
    _geom_bond_site_symmetry_2
    _ccdc_geom_bond_type
    N4     O5        1.20037      .   S
    Zr0    O5        2.22588      .   S
    N6     O7        1.20035      .   S
    Zr2    O7        2.22582      .   S
    N8     O9        1.19985      .   S
    Zr3    O9        2.22470  1_565   S
    N10    O11       1.19987      .   S
    Zr1    O11       2.22475  1_545   S
    C12    O13       1.05671      .   S
    Zr1    O13       2.07207      .   S
    C12    O14       1.06179      .   S
    Zr1    O14       2.05399  1_655   S
    C12    O15       1.07407      .   S
    Zr3    O15       2.08164  1_566   S
    C12    O16       1.46256      .   S
    N6     O16       2.54281      .   S
    C17    O18       1.06179      .   S
    Zr3    O18       2.05397  1_455   S
    C17    O19       1.05671      .   S
    Zr3    O19       2.07206      .   S
    C17    O20       1.07403      .   S
    Zr1    O20       2.08152  1_544   S
    C17    O21       1.46256      .   S
    N4     O21       2.54281      .   S
    C22    O23       1.05578      .   S
    Zr2    O23       2.07053      .   S
    C22    O24       1.06182      .   S
    Zr2    O24       2.05415  1_655   S
    C22    O25       1.07430      .   S
    Zr0    O25       2.08189      .   S
    C22    O26       1.46241      .   S
    N10    O26       2.54252      .   S
    C27    O28       1.05580      .   S
    Zr0    O28       2.07059      .   S
    C27    O29       1.46241      .   S
    N8     O29       2.54253      .   S
    C27    O30       1.06181      .   S
    Zr0    O30       2.05414  1_455   S
    C27    O31       1.07434      .   S
    Zr2    O31       2.08201      .   S
