# CIF file generated by openbabel 2.4.90, see http://openbabel.sf.net
data_I
_chemical_name_common ''
_cell_length_a 5.723
_cell_length_b 10.564
_cell_length_c 16.265
_cell_angle_alpha 89.97
_cell_angle_beta 89.969
_cell_angle_gamma 87.555
_space_group_name_H-M_alt 'P 1'
_space_group_name_Hall 'P 1'
loop_
    _symmetry_equiv_pos_as_xyz
    x,y,z
loop_
    _atom_site_label
    _atom_site_type_symbol
    _atom_site_fract_x
    _atom_site_fract_y
    _atom_site_fract_z
    _atom_site_occupancy
    Zr0     Zr   0.24840   0.49494   0.56933   1.000
    Zr1     Zr   0.75141   0.00520   0.06925   1.000
    Zr2     Zr   0.75163   0.50505   0.43073   1.000
    Zr3     Zr   0.24861   0.99480   0.93080   1.000
    Zr4     Zr   0.65319   0.35213   0.66143   1.000
    Zr5     Zr   0.34590   0.14877   0.16108   1.000
    Zr6     Zr   0.34685   0.64787   0.33864   1.000
    Zr7     Zr   0.65413   0.85121   0.83899   1.000
    Zr8     Zr   0.56315   0.39168   0.58798   1.000
    Zr9     Zr   0.74578   0.43996   0.54724   1.000
    Zr10    Zr   0.93651   0.43026   0.59572   1.000
    Zr11    Zr   0.88158   0.37702   0.66762   1.000
    Zr12    Zr   0.43656   0.10846   0.08789   1.000
    Zr13    Zr   0.25412   0.05994   0.04725   1.000
    Zr14    Zr   0.06286   0.07040   0.09549   1.000
    Zr15    Zr   0.11732   0.12419   0.16720   1.000
    Zr16    Zr   0.43689   0.60831   0.41208   1.000
    Zr17    Zr   0.25426   0.56003   0.45283   1.000
    Zr18    Zr   0.06353   0.56973   0.40434   1.000
    Zr19    Zr   0.11847   0.62298   0.33244   1.000
    Zr20    Zr   0.56347   0.89153   0.91218   1.000
    Zr21    Zr   0.74590   0.94006   0.95281   1.000
    Zr22    Zr   0.93717   0.92959   0.90457   1.000
    Zr23    Zr   0.88270   0.87579   0.83287   1.000
    O24     O    0.34534   0.08420   0.06757   1.000
    O25     O    0.15849   0.06517   0.07137   1.000
    O26     O    0.25137   0.02737   0.98903   1.000
    O27     O    0.59398   0.05683   0.07857   1.000
    O28     O    0.90713   0.03780   0.08237   1.000
    O29     O    0.74865   0.97263   0.01103   1.000
    O30     O    0.39123   0.12861   0.12449   1.000
    O31     O    0.09009   0.09729   0.13135   1.000
    O32     O    0.23161   0.13648   0.16414   1.000
    O33     O    0.23266   0.63543   0.33554   1.000
    O34     O    0.09100   0.59635   0.36839   1.000
    O35     O    0.39187   0.62809   0.37536   1.000
    O36     O    0.90758   0.53739   0.41753   1.000
    O37     O    0.15889   0.56488   0.42858   1.000
    O38     O    0.59426   0.55668   0.42141   1.000
    O39     O    0.34558   0.58417   0.43246   1.000
    O40     O    0.74870   0.47250   0.48898   1.000
    O41     O    0.25133   0.52749   0.51108   1.000
    O42     O    0.65446   0.41582   0.56761   1.000
    O43     O    0.84114   0.43511   0.57148   1.000
    O44     O    0.40578   0.44331   0.57865   1.000
    O45     O    0.09246   0.46260   0.58253   1.000
    O46     O    0.60817   0.37190   0.62471   1.000
    O47     O    0.90904   0.40364   0.63167   1.000
    O48     O    0.76738   0.36457   0.66452   1.000
    O49     O    0.76841   0.86350   0.83593   1.000
    O50     O    0.90993   0.90269   0.86872   1.000
    O51     O    0.60880   0.87137   0.87559   1.000
    O52     O    0.09289   0.96219   0.91769   1.000
    O53     O    0.84153   0.93483   0.92869   1.000
    O54     O    0.40604   0.94316   0.92149   1.000
    O55     O    0.65468   0.91579   0.93250   1.000
    N56     N    0.43247   0.70694   0.71213   1.000
    O57     O    0.51346   0.76178   0.75958   1.000
    O58     O    0.36211   0.63554   0.66133   1.000
    N59     N    0.56756   0.29303   0.28794   1.000
    O60     O    0.48657   0.23819   0.24050   1.000
    O61     O    0.63792   0.36444   0.33874   1.000
    N62     N    0.43111   0.20789   0.78837   1.000
    O63     O    0.51222   0.26276   0.74091   1.000
    O64     O    0.36121   0.13612   0.83906   1.000
    N65     N    0.56893   0.79211   0.21170   1.000
    O66     O    0.48782   0.73724   0.25917   1.000
    O67     O    0.63882   0.86389   0.16100   1.000
loop_
    _geom_bond_atom_site_label_1
    _geom_bond_atom_site_label_2
    _geom_bond_distance
    _geom_bond_site_symmetry_2
    _ccdc_geom_bond_type
    Zr13   O24       0.67758      .   S
    Zr12   O24       0.67758      .   S
    Zr13   O25       0.67359      .   S
    Zr14   O25       0.67359      .   S
    Zr13   O26       1.00812  1_554   S
    Zr3    O26       1.00812  1_565   S
    Zr1    O27       1.04412      .   S
    Zr12   O27       1.04412      .   S
    Zr1    O28       0.99241      .   S
    Zr14   O28       0.99241  1_455   S
    Zr1    O29       1.00805  1_545   S
    Zr21   O29       1.00805  1_556   S
    Zr12   O30       0.67985      .   S
    Zr5    O30       0.67985      .   S
    Zr14   O31       0.67018      .   S
    Zr15   O31       0.67018      .   S
    Zr5    O32       0.67404      .   S
    Zr15   O32       0.67404      .   S
    Zr19   O33       0.67403      .   S
    Zr6    O33       0.67403      .   S
    Zr19   O34       0.67020      .   S
    Zr18   O34       0.67020      .   S
    Zr6    O35       0.67988      .   S
    Zr16   O35       0.67988      .   S
    Zr18   O36       0.99251  1_455   S
    Zr2    O36       0.99251      .   S
    Zr18   O37       0.67367      .   S
    Zr17   O37       0.67367      .   S
    Zr16   O38       1.04391      .   S
    Zr2    O38       1.04391      .   S
    Zr16   O39       0.67751      .   S
    Zr17   O39       0.67751      .   S
    Zr2    O40       1.00817      .   S
    Zr9    O40       1.00817      .   S
    Zr17   O41       1.00809      .   S
    Zr0    O41       1.00809      .   S
    Zr9    O42       0.67751      .   S
    Zr8    O42       0.67751      .   S
    Zr9    O43       0.67366      .   S
    Zr10   O43       0.67366      .   S
    Zr0    O44       1.04393      .   S
    Zr8    O44       1.04393      .   S
    Zr0    O45       0.99251      .   S
    Zr10   O45       0.99251  1_655   S
    Zr8    O46       0.67988      .   S
    Zr4    O46       0.67988      .   S
    Zr10   O47       0.67019      .   S
    Zr11   O47       0.67019      .   S
    Zr4    O48       0.67403      .   S
    Zr11   O48       0.67403      .   S
    Zr23   O49       0.67404      .   S
    Zr7    O49       0.67404      .   S
    Zr23   O50       0.67018      .   S
    Zr22   O50       0.67018      .   S
    Zr7    O51       0.67986      .   S
    Zr20   O51       0.67986      .   S
    Zr22   O52       0.99240  1_655   S
    Zr3    O52       0.99240      .   S
    Zr22   O53       0.67360      .   S
    Zr21   O53       0.67360      .   S
    Zr20   O54       1.04412      .   S
    Zr3    O54       1.04412      .   S
    Zr20   O55       0.67758      .   S
    Zr21   O55       0.67758      .   S
    N56    O57       1.08152      .   S
    Zr7    O57       1.81006      .   S
    N56    O58       1.20037      .   S
    Zr0    O58       2.22588      .   S
    N59    O60       1.08152      .   S
    Zr5    O60       1.81006      .   S
    N59    O61       1.20035      .   S
    Zr2    O61       2.22582      .   S
    N62    O63       1.08145      .   S
    Zr4    O63       1.80991      .   S
    N62    O64       1.19985      .   S
    Zr3    O64       2.22470  1_565   S
    N65    O66       1.08145      .   S
    Zr6    O66       1.80990      .   S
    N65    O67       1.19987      .   S
    Zr1    O67       2.22475  1_545   S
