# CIF file generated by openbabel 2.4.90, see http://openbabel.sf.net
data_I
_chemical_name_common ''
_cell_length_a 14.039
_cell_length_b 14.068
_cell_length_c 14.791
_cell_angle_alpha 90.014
_cell_angle_beta 89.981
_cell_angle_gamma 89.986
_space_group_name_H-M_alt 'P 1'
_space_group_name_Hall 'P 1'
loop_
    _symmetry_equiv_pos_as_xyz
    x,y,z
loop_
    _atom_site_label
    _atom_site_type_symbol
    _atom_site_fract_x
    _atom_site_fract_y
    _atom_site_fract_z
    _atom_site_occupancy
    Zr0     Zr   0.49999   0.50000   0.00000   1.000
    Zr1     Zr   0.99999   0.49998   0.50002   1.000
    Zr2     Zr   0.49999   0.00003   0.50004   1.000
    Zr3     Zr   0.83403   0.66604   0.20736   1.000
    Zr4     Zr   0.66594   0.83390   0.20736   1.000
    Zr5     Zr   0.83404   0.83386   0.70744   1.000
    Zr6     Zr   0.66592   0.66617   0.70745   1.000
    Zr7     Zr   0.16594   0.16613   0.29259   1.000
    Zr8     Zr   0.33405   0.33382   0.29258   1.000
    Zr9     Zr   0.16598   0.33388   0.79265   1.000
    Zr10    Zr   0.33400   0.16616   0.79260   1.000
    N11     N    0.88661   0.88646   0.09410   1.000
    O12     O    0.86615   0.80668   0.13470   1.000
    O13     O    0.80672   0.86595   0.13466   1.000
    N14     N    0.38650   0.38658   0.90579   1.000
    O15     O    0.42178   0.42184   0.93477   1.000
    O16     O    0.30669   0.36603   0.86527   1.000
    O17     O    0.36606   0.30683   0.86522   1.000
    N18     N    0.58168   0.91811   0.34204   1.000
    N19     N    0.61352   0.88665   0.59437   1.000
    O20     O    0.69334   0.86606   0.63485   1.000
    O21     O    0.63395   0.80687   0.63491   1.000
    O22     O    0.57823   0.92189   0.56537   1.000
    N23     N    0.58158   0.58189   0.84209   1.000
    N24     N    0.08169   0.41811   0.65796   1.000
    N25     N    0.11336   0.11363   0.90588   1.000
    O26     O    0.13384   0.19333   0.86528   1.000
    O27     O    0.19321   0.13413   0.86531   1.000
    N28     N    0.11340   0.38658   0.40566   1.000
    O29     O    0.13390   0.30680   0.36515   1.000
    O30     O    0.07815   0.42182   0.43469   1.000
    O31     O    0.19327   0.36600   0.36517   1.000
    N32     N    0.38648   0.11336   0.40564   1.000
    O33     O    0.42175   0.07814   0.43468   1.000
    O34     O    0.36604   0.19313   0.36510   1.000
    O35     O    0.30666   0.13394   0.36516   1.000
    N36     N    0.41837   0.41815   0.15794   1.000
    N37     N    0.61329   0.61349   0.09417   1.000
    O38     O    0.63377   0.69326   0.13473   1.000
    O39     O    0.57807   0.57823   0.06521   1.000
    O40     O    0.69319   0.63398   0.13471   1.000
    N41     N    0.88656   0.61340   0.59437   1.000
    O42     O    0.80670   0.63398   0.63486   1.000
    O43     O    0.92182   0.57815   0.56535   1.000
    O44     O    0.86607   0.69317   0.63489   1.000
    N45     N    0.41831   0.08187   0.65794   1.000
    N46     N    0.91830   0.58185   0.34209   1.000
    O47     O    0.61149   0.88834   0.29314   1.000
    O48     O    0.38856   0.38834   0.20681   1.000
    O49     O    0.94726   0.55286   0.39649   1.000
    O50     O    0.05272   0.44711   0.60356   1.000
    O51     O    0.38850   0.11165   0.70683   1.000
    O52     O    0.11149   0.38834   0.70685   1.000
    O53     O    0.61140   0.61168   0.79322   1.000
    O54     O    0.88850   0.61161   0.29319   1.000
    O55     O    0.55263   0.55288   0.89648   1.000
    O56     O    0.44728   0.05289   0.60354   1.000
    O57     O    0.44732   0.44715   0.10355   1.000
    O58     O    0.55271   0.94711   0.39646   1.000
loop_
    _geom_bond_atom_site_label_1
    _geom_bond_atom_site_label_2
    _geom_bond_distance
    _geom_bond_site_symmetry_2
    _ccdc_geom_bond_type
    N11    O12       1.30501      .   S
    Zr3    O12       2.29648      .   S
    N11    O13       1.30412      .   S
    Zr4    O13       2.29463      .   S
    N14    O15       0.82169      .   S
    Zr0    O15       1.82924  1_554   S
    N14    O16       1.30336      .   S
    Zr9    O16       2.29400      .   S
    N14    O17       1.30432      .   S
    Zr10   O17       2.29615      .   S
    N19    O20       1.30331      .   S
    Zr5    O20       2.29371      .   S
    N19    O21       1.30449      .   S
    Zr6    O21       2.29596      .   S
    N19    O22       0.82182      .   S
    Zr2    O22       1.83009  1_545   S
    N25    O26       1.30420      .   S
    Zr9    O26       2.29529      .   S
    N25    O27       1.30381      .   S
    Zr10   O27       2.29461      .   S
    N28    O29       1.30412      .   S
    Zr7    O29       2.29538      .   S
    N28    O30       0.82144      .   S
    Zr1    O30       1.82893  1_655   S
    N28    O31       1.30343      .   S
    Zr8    O31       2.29392      .   S
    N32    O33       0.82182      .   S
    Zr2    O33       1.82999      .   S
    N32    O34       1.30442      .   S
    Zr8    O34       2.29578      .   S
    N32    O35       1.30327      .   S
    Zr7    O35       2.29370      .   S
    N37    O38       1.30460      .   S
    Zr4    O38       2.29606      .   S
    N37    O39       0.82109      .   S
    Zr0    O39       1.82865      .   S
    N37    O40       1.30440      .   S
    Zr3    O40       2.29549      .   S
    N41    O42       1.30339      .   S
    Zr6    O42       2.29384      .   S
    N41    O43       0.82149      .   S
    Zr1    O43       1.82906      .   S
    N41    O44       1.30415      .   S
    Zr5    O44       2.29542      .   S
    Zr4    O47       1.66718      .   S
    N18    O47       0.93436      .   S
    Zr8    O48       1.66831      .   S
    N36    O48       0.93466      .   S
    Zr1    O49       1.85670      .   S
    N46    O49       0.98967      .   S
    Zr1    O50       1.85676  1_655   S
    N24    O50       0.98970      .   S
    Zr10   O51       1.66773      .   S
    N45    O51       0.93444      .   S
    Zr9    O52       1.66842      .   S
    N24    O52       0.93469      .   S
    Zr6    O53       1.66827      .   S
    N23    O53       0.93463      .   S
    Zr3    O54       1.66841      .   S
    N46    O54       0.93469      .   S
    N23    O55       0.98938      .   S
    Zr0    O55       1.85585  1_554   S
    N45    O56       0.98921      .   S
    Zr2    O56       1.85543      .   S
    N36    O57       0.98944      .   S
    Zr0    O57       1.85609      .   S
    Zr2    O58       1.85685  1_545   S
    N18    O58       0.98961      .   S
