# CIF file generated by openbabel 2.4.90, see http://openbabel.sf.net
data_I
_chemical_name_common ''
_cell_length_a 14.039
_cell_length_b 14.068
_cell_length_c 14.791
_cell_angle_alpha 90.014
_cell_angle_beta 89.981
_cell_angle_gamma 89.986
_space_group_name_H-M_alt 'P 1'
_space_group_name_Hall 'P 1'
loop_
    _symmetry_equiv_pos_as_xyz
    x,y,z
loop_
    _atom_site_label
    _atom_site_type_symbol
    _atom_site_fract_x
    _atom_site_fract_y
    _atom_site_fract_z
    _atom_site_occupancy
    Zr0     Zr   0.49999   0.50000   0.00000   1.000
    Zr1     Zr   0.00003   0.99996   0.20000   1.000
    Zr2     Zr   0.99999   0.49998   0.50002   1.000
    Zr3     Zr   0.49999   0.00003   0.50004   1.000
    Zr4     Zr   0.83403   0.66604   0.20736   1.000
    Zr5     Zr   0.66594   0.83390   0.20736   1.000
    Zr6     Zr   0.83404   0.83386   0.70744   1.000
    Zr7     Zr   0.66592   0.66617   0.70745   1.000
    Zr8     Zr   0.16594   0.16613   0.29259   1.000
    Zr9     Zr   0.33405   0.33382   0.29258   1.000
    Zr10    Zr   0.16598   0.33388   0.79265   1.000
    Zr11    Zr   0.33400   0.16616   0.79260   1.000
    N12     N    0.88661   0.88646   0.09410   1.000
    O13     O    0.86615   0.80668   0.13470   1.000
    O14     O    0.80672   0.86595   0.13466   1.000
    N15     N    0.38650   0.38658   0.90579   1.000
    O16     O    0.42178   0.42184   0.93477   1.000
    O17     O    0.30669   0.36603   0.86527   1.000
    O18     O    0.36606   0.30683   0.86522   1.000
    N19     N    0.58168   0.91811   0.34204   1.000
    O20     O    0.53527   0.92973   0.39646   1.000
    O21     O    0.62817   0.90501   0.29313   1.000
    O22     O    0.59480   0.87168   0.29315   1.000
    O23     O    0.57015   0.96450   0.39646   1.000
    N24     N    0.61352   0.88665   0.59437   1.000
    O25     O    0.69334   0.86606   0.63485   1.000
    O26     O    0.63395   0.80687   0.63491   1.000
    O27     O    0.57823   0.92189   0.56537   1.000
    N28     N    0.58158   0.58189   0.84209   1.000
    O29     O    0.57008   0.53552   0.89650   1.000
    O30     O    0.53518   0.57025   0.89646   1.000
    O31     O    0.62810   0.59501   0.79321   1.000
    O32     O    0.59471   0.62835   0.79322   1.000
    N33     N    0.08169   0.41811   0.65796   1.000
    O34     O    0.03529   0.42973   0.60357   1.000
    O35     O    0.07015   0.46448   0.60354   1.000
    O36     O    0.09480   0.37167   0.70684   1.000
    O37     O    0.12817   0.40501   0.70685   1.000
    N38     N    0.11336   0.11363   0.90588   1.000
    O39     O    0.13384   0.19333   0.86528   1.000
    O40     O    0.19321   0.13413   0.86531   1.000
    N41     N    0.11340   0.38658   0.40566   1.000
    O42     O    0.13390   0.30680   0.36515   1.000
    O43     O    0.07815   0.42182   0.43469   1.000
    O44     O    0.19327   0.36600   0.36517   1.000
    N45     N    0.38648   0.11336   0.40564   1.000
    O46     O    0.42175   0.07814   0.43468   1.000
    O47     O    0.36604   0.19313   0.36510   1.000
    O48     O    0.30666   0.13394   0.36516   1.000
    N49     N    0.08152   0.08190   0.15810   1.000
    O50     O    0.07005   0.03551   0.15363   1.000
    O51     O    0.07068   0.05154   0.16826   1.000
    O52     O    0.03509   0.07025   0.15375   1.000
    O53     O    0.09471   0.12835   0.20694   1.000
    O54     O    0.05122   0.07092   0.16828   1.000
    O55     O    0.12808   0.09501   0.20692   1.000
    N56     N    0.41837   0.41815   0.15794   1.000
    O57     O    0.40525   0.37168   0.20680   1.000
    O58     O    0.46477   0.42978   0.10355   1.000
    O59     O    0.37186   0.40501   0.20683   1.000
    O60     O    0.42988   0.46452   0.10354   1.000
    N61     N    0.91841   0.91808   0.84196   1.000
    O62     O    0.90525   0.87164   0.79311   1.000
    O63     O    0.87187   0.90497   0.79313   1.000
    N64     N    0.61329   0.61349   0.09417   1.000
    O65     O    0.63377   0.69326   0.13473   1.000
    O66     O    0.57807   0.57823   0.06521   1.000
    O67     O    0.69319   0.63398   0.13471   1.000
    N68     N    0.88656   0.61340   0.59437   1.000
    O69     O    0.80670   0.63398   0.63486   1.000
    O70     O    0.92182   0.57815   0.56535   1.000
    O71     O    0.86607   0.69317   0.63489   1.000
    N72     N    0.41831   0.08187   0.65794   1.000
    O73     O    0.40518   0.12832   0.70682   1.000
    O74     O    0.42985   0.03551   0.60354   1.000
    O75     O    0.46471   0.07027   0.60355   1.000
    O76     O    0.37181   0.09499   0.70684   1.000
    N77     N    0.91830   0.58185   0.34209   1.000
    O78     O    0.87182   0.59494   0.29319   1.000
    O79     O    0.92983   0.53548   0.39650   1.000
    O80     O    0.90519   0.62829   0.29319   1.000
    O81     O    0.96469   0.57024   0.39648   1.000
loop_
    _geom_bond_atom_site_label_1
    _geom_bond_atom_site_label_2
    _geom_bond_distance
    _geom_bond_site_symmetry_2
    _ccdc_geom_bond_type
    N12    O13       1.30501      .   S
    Zr4    O13       2.29648      .   S
    N12    O14       1.30412      .   S
    Zr5    O14       2.29463      .   S
    N15    O16       0.82169      .   S
    Zr0    O16       1.82924  1_554   S
    N15    O17       1.30336      .   S
    Zr10   O17       2.29400      .   S
    N15    O18       1.30432      .   S
    Zr11   O18       2.29615      .   S
    N19    O20       1.04818      .   S
    Zr3    O20       1.88929  1_545   S
    N19    O21       0.99135      .   S
    Zr5    O21       1.70000      .   S
    N19    O22       0.99146      .   S
    Zr5    O22       1.69961      .   S
    N19    O23       1.04860      .   S
    Zr3    O23       1.88838  1_545   S
    N24    O25       1.30331      .   S
    Zr6    O25       2.29371      .   S
    N24    O26       1.30449      .   S
    Zr7    O26       2.29596      .   S
    N24    O27       0.82182      .   S
    Zr3    O27       1.83009  1_545   S
    N28    O29       1.04855      .   S
    Zr0    O29       1.88710  1_554   S
    N28    O30       1.04767      .   S
    Zr0    O30       1.88853  1_554   S
    N28    O31       0.99153      .   S
    Zr7    O31       1.70116      .   S
    N28    O32       0.99186      .   S
    Zr7    O32       1.70064      .   S
    N33    O34       1.04808      .   S
    Zr2    O34       1.88921  1_655   S
    N33    O35       1.04875      .   S
    Zr2    O35       1.88819  1_655   S
    N33    O36       0.99194      .   S
    Zr10   O36       1.70081      .   S
    N33    O37       0.99157      .   S
    Zr10   O37       1.70129      .   S
    N38    O39       1.30420      .   S
    Zr10   O39       2.29529      .   S
    N38    O40       1.30381      .   S
    Zr11   O40       2.29461      .   S
    N41    O42       1.30412      .   S
    Zr8    O42       2.29538      .   S
    N41    O43       0.82144      .   S
    Zr2    O43       1.82893  1_655   S
    N41    O44       1.30343      .   S
    Zr9    O44       2.29392      .   S
    N45    O46       0.82182      .   S
    Zr3    O46       1.82999      .   S
    N45    O47       1.30442      .   S
    Zr9    O47       2.29578      .   S
    N45    O48       1.30327      .   S
    Zr8    O48       2.29370      .   S
    N49    O50       0.67544      .   S
    Zr1    O50       1.29877  1_565   S
    N49    O51       0.47769      .   S
    Zr1    O51       1.31563  1_565   S
    N49    O52       0.67523      .   S
    Zr1    O52       1.29940  1_565   S
    N49    O53       0.99143      .   S
    Zr8    O53       1.69946      .   S
    N49    O54       0.47688      .   S
    Zr1    O54       1.31659  1_565   S
    N49    O55       0.99138      .   S
    Zr8    O55       1.69982      .   S
    N56    O57       0.99186      .   S
    Zr9    O57       1.70071      .   S
    N56    O58       1.04788      .   S
    Zr0    O58       1.88853      .   S
    N56    O59       0.99157      .   S
    Zr9    O59       1.70115      .   S
    N56    O60       1.04847      .   S
    Zr0    O60       1.88759      .   S
    N61    O62       0.99141      .   S
    Zr6    O62       1.69947      .   S
    N61    O63       0.99138      .   S
    Zr6    O63       1.69978      .   S
    N64    O65       1.30460      .   S
    Zr5    O65       2.29606      .   S
    N64    O66       0.82109      .   S
    Zr0    O66       1.82865      .   S
    N64    O67       1.30440      .   S
    Zr4    O67       2.29549      .   S
    N68    O69       1.30339      .   S
    Zr7    O69       2.29384      .   S
    N68    O70       0.82149      .   S
    Zr2    O70       1.82906      .   S
    N68    O71       1.30415      .   S
    Zr6    O71       2.29542      .   S
    N72    O73       0.99156      .   S
    Zr11   O73       1.70015      .   S
    N72    O74       1.04822      .   S
    Zr3    O74       1.88697      .   S
    N72    O75       1.04776      .   S
    Zr3    O75       1.88788      .   S
    N72    O76       0.99144      .   S
    Zr11   O76       1.70057      .   S
    N77    O78       0.99159      .   S
    Zr4    O78       1.70125      .   S
    N77    O79       1.04872      .   S
    Zr2    O79       1.88815      .   S
    N77    O80       0.99192      .   S
    Zr4    O80       1.70082      .   S
    N77    O81       1.04806      .   S
    Zr2    O81       1.88915      .   S
