# CIF file generated by openbabel 2.4.90, see http://openbabel.sf.net
data_I
_chemical_name_common ''
_cell_length_a 19.009
_cell_length_b 13.056
_cell_length_c 12.882
_cell_angle_alpha 111.49
_cell_angle_beta 105.097
_cell_angle_gamma 98.844
_space_group_name_H-M_alt 'P 1'
_space_group_name_Hall 'P 1'
loop_
    _symmetry_equiv_pos_as_xyz
    x,y,z
loop_
    _atom_site_label
    _atom_site_type_symbol
    _atom_site_fract_x
    _atom_site_fract_y
    _atom_site_fract_z
    _atom_site_occupancy
    Cd0     Cd   0.50950   0.39566   0.57509   1.000
    Cd1     Cd   0.49051   0.60431   0.42492   1.000
    Cd2     Cd   0.99052   0.60431   0.42492   1.000
    Cd3     Cd   0.00949   0.39566   0.57500   1.000
