# CIF file generated by openbabel 2.4.90, see http://openbabel.sf.net
data_I
_chemical_name_common ''
_cell_length_a 19.009
_cell_length_b 13.056
_cell_length_c 12.882
_cell_angle_alpha 111.49
_cell_angle_beta 105.097
_cell_angle_gamma 98.844
_space_group_name_H-M_alt 'P 1'
_space_group_name_Hall 'P 1'
loop_
    _symmetry_equiv_pos_as_xyz
    x,y,z
loop_
    _atom_site_label
    _atom_site_type_symbol
    _atom_site_fract_x
    _atom_site_fract_y
    _atom_site_fract_z
    _atom_site_occupancy
    Zr0     Zr   0.00949   0.39566   0.57500   1.000
    Zr1     Zr   0.50950   0.39566   0.57509   1.000
    Zr2     Zr   0.49051   0.60431   0.42492   1.000
    Zr3     Zr   0.99052   0.60431   0.42492   1.000
    N4      N    0.73512   0.10997   0.93260   1.000
    O5      O    0.64000   0.89036   0.71805   1.000
    O6      O    0.83382   0.32565   0.14341   1.000
    N7      N    0.00000   0.99999   0.00001   1.000
    N8      N    0.26489   0.88979   0.06720   1.000
    O9      O    0.16619   0.67421   0.85647   1.000
    O10     O    0.36001   0.10951   0.28185   1.000
    N11     N    0.50001   0.99999   0.00000   1.000
    N12     N    0.23512   0.10997   0.93242   1.000
    O13     O    0.33381   0.32565   0.14332   1.000
    O14     O    0.13999   0.89035   0.71796   1.000
    N15     N    0.25000   0.99999   0.50001   1.000
    O16     O    0.36653   0.83402   0.43995   1.000
    O17     O    0.13347   0.16595   0.56004   1.000
    N18     N    0.75001   0.99999   0.50000   1.000
    O19     O    0.63348   0.16595   0.56005   1.000
    O20     O    0.86654   0.83402   0.43995   1.000
    N21     N    0.76489   0.88979   0.06719   1.000
    O22     O    0.66620   0.67421   0.85649   1.000
    O23     O    0.86002   0.10951   0.28183   1.000
    O24     O    0.49763   0.77607   0.23123   1.000
    O25     O    0.50238   0.22391   0.76877   1.000
    O26     O    0.00237   0.22390   0.76875   1.000
    O27     O    0.99763   0.77607   0.23123   1.000
loop_
    _geom_bond_atom_site_label_1
    _geom_bond_atom_site_label_2
    _geom_bond_distance
    _geom_bond_site_symmetry_2
    _ccdc_geom_bond_type
    N4     O5        3.02100  1_545   S
    Zr2    O5        4.13466      .   S
    N4     O6        2.99043  1_556   S
    Zr3    O6        4.07848      .   S
    N8     O9        2.98931  1_554   S
    Zr0    O9        4.07769      .   S
    N8     O10       3.02221  1_565   S
    Zr1    O10       4.13591      .   S
    N12    O13       2.99090  1_556   S
    Zr2    O13       4.07892      .   S
    N12    O14       3.02051  1_545   S
    Zr3    O14       4.13415  1_655   S
    N15    O16       3.36763      .   S
    Zr2    O16       4.07083      .   S
    N15    O17       3.36759  1_565   S
    Zr0    O17       4.07090      .   S
    N18    O19       3.36762  1_565   S
    Zr1    O19       4.07083      .   S
    N18    O20       3.36761      .   S
    Zr3    O20       4.07080      .   S
    N21    O22       2.98919  1_554   S
    Zr1    O22       4.07736      .   S
    N21    O23       3.02214  1_565   S
    Zr0    O23       4.13542  1_455   S
    Zr2    O24       3.93119      .   S
    N11    O24       4.88175      .   S
    Zr1    O25       3.93114      .   S
    N11    O25       4.88166  1_564   S
    Zr0    O26       3.93189      .   S
    N7     O26       4.88193  1_564   S
    Zr3    O27       3.93116      .   S
    N7     O27       4.88172  1_455   S
