# CIF file generated by openbabel 2.4.90, see http://openbabel.sf.net
data_I
_chemical_name_common ''
_cell_length_a 13.828
_cell_length_b 15.638
_cell_length_c 15.641
_cell_angle_alpha 90.018
_cell_angle_beta 90.001
_cell_angle_gamma 89.957
_space_group_name_H-M_alt 'P 1'
_space_group_name_Hall 'P 1'
loop_
    _symmetry_equiv_pos_as_xyz
    x,y,z
loop_
    _atom_site_label
    _atom_site_type_symbol
    _atom_site_fract_x
    _atom_site_fract_y
    _atom_site_fract_z
    _atom_site_occupancy
    Zr0     Zr   0.63840   0.00002   0.10000   1.000
    Zr1     Zr   0.13852   0.50003   0.49989   1.000
    Zr2     Zr   0.86146   0.49999   0.50007   1.000
    Zr3     Zr   0.36156   0.99998   0.99990   1.000
    N4      N    0.50000   0.29129   0.70867   1.000
    O5      O    0.66178   0.37660   0.62341   1.000
    O6      O    0.33820   0.37661   0.62332   1.000
    O7      O    0.45323   0.16370   0.83619   1.000
    N8      N    0.00001   0.79132   0.79127   1.000
    O9      O    0.04680   0.66376   0.66363   1.000
    O10     O    0.95320   0.66371   0.66375   1.000
    O11     O    0.16184   0.87662   0.87654   1.000
    N12     N    0.49998   0.70872   0.29127   1.000
    O13     O    0.33820   0.62341   0.37654   1.000
    O14     O    0.54674   0.83631   0.18874   1.000
    O15     O    0.45321   0.83626   0.16363   1.000
    O16     O    0.66178   0.62340   0.37663   1.000
    N17     N    0.99997   0.20870   0.20869   1.000
    O18     O    0.04678   0.33631   0.33621   1.000
    O19     O    0.95318   0.33626   0.33632   1.000
    O20     O    0.83814   0.12339   0.14840   1.000
    O21     O    0.16183   0.12339   0.12332   1.000
loop_
    _geom_bond_atom_site_label_1
    _geom_bond_atom_site_label_2
    _geom_bond_distance
    _geom_bond_site_symmetry_2
    _ccdc_geom_bond_type
    N4     O5        2.92726      .   S
    Zr2    O5        3.88308      .   S
    N4     O6        2.92663      .   S
    Zr1    O6        3.88200      .   S
    N4     O7        2.89514      .   S
    Zr3    O7        3.83762  1_565   S
    N8     O9        2.89462      .   S
    Zr1    O9        3.83595      .   S
    N8     O10       2.89466  1_455   S
    Zr2    O10       3.83655      .   S
    N8     O11       2.92732      .   S
    Zr3    O11       3.88294      .   S
    N12    O13       2.92731      .   S
    Zr1    O13       3.88312      .   S
    N12    O14       2.64107      .   S
    Zr0    O14       3.17707  1_545   S
    N12    O15       2.89520      .   S
    Zr3    O15       3.83646  1_556   S
    N12    O16       2.92669      .   S
    Zr2    O16       3.88202      .   S
    N17    O18       2.89465  1_655   S
    Zr1    O18       3.83654      .   S
    N17    O19       2.89455      .   S
    Zr2    O19       3.83605      .   S
    N17    O20       2.77137      .   S
    Zr0    O20       3.45411      .   S
    N17    O21       2.92688  1_655   S
    Zr3    O21       3.88183  1_566   S
