# CIF file generated by openbabel 2.4.90, see http://openbabel.sf.net
data_I
_chemical_name_common ''
_cell_length_a 9.0155
_cell_length_b 9.0175
_cell_length_c 19.522
_cell_angle_alpha 90.006
_cell_angle_beta 90.004
_cell_angle_gamma 111.285
_space_group_name_H-M_alt 'P 1'
_space_group_name_Hall 'P 1'
loop_
    _symmetry_equiv_pos_as_xyz
    x,y,z
loop_
    _atom_site_label
    _atom_site_type_symbol
    _atom_site_fract_x
    _atom_site_fract_y
    _atom_site_fract_z
    _atom_site_occupancy
    N0      N    0.68158   0.95476   0.32817   1.000
    N1      N    0.33062   0.37131   0.42053   1.000
    N2      N    0.80601   0.51393   0.30998   1.000
    N3      N    0.18149   0.45475   0.17458   1.000
    N4      N    0.16935   0.12891   0.92123   1.000
    N5      N    0.69392   0.98628   0.81000   1.000
    N6      N    0.83057   0.87130   0.08222   1.000
    N7      N    0.30598   0.01392   0.19277   1.000
    N8      N    0.81850   0.54548   0.82817   1.000
    N9      N    0.66933   0.62887   0.58223   1.000
    N10     N    0.31842   0.04544   0.67459   1.000
    N11     N    0.19392   0.48625   0.69278   1.000
    Zr12    Zr   0.98256   0.69456   0.67625   1.000
    O13     O    0.88510   0.67324   0.64529   1.000
    O14     O    0.93498   0.66172   0.72484   1.000
    O15     O    0.04446   0.62293   0.67986   1.000
    O16     O    0.08572   0.80480   0.67285   1.000
    Zr17    Zr   0.00333   0.29380   0.81759   1.000
    O18     O    0.94879   0.37582   0.82359   1.000
    O19     O    0.90548   0.19678   0.81188   1.000
    O20     O    0.05557   0.24564   0.85239   1.000
    O21     O    0.06858   0.35124   0.77829   1.000
    Zr22    Zr   0.01741   0.30562   0.32651   1.000
    O23     O    0.91426   0.19538   0.32991   1.000
    O24     O    0.11486   0.32694   0.35747   1.000
    O25     O    0.06500   0.33847   0.27792   1.000
    O26     O    0.95548   0.37724   0.32290   1.000
    Zr27    Zr   0.49665   0.20644   0.31759   1.000
    O28     O    0.55124   0.12444   0.32359   1.000
    O29     O    0.44440   0.25459   0.35221   1.000
    O30     O    0.59446   0.30346   0.31187   1.000
    O31     O    0.43137   0.14897   0.27828   1.000
    Zr32    Zr   0.51739   0.80562   0.17623   1.000
    O33     O    0.61483   0.82695   0.14527   1.000
    O34     O    0.56502   0.83848   0.22482   1.000
    O35     O    0.41421   0.69539   0.17284   1.000
    O36     O    0.45547   0.87725   0.17984   1.000
    Zr37    Zr   0.50328   0.79375   0.68518   1.000
    O38     O    0.55552   0.74559   0.65056   1.000
    O39     O    0.44872   0.87577   0.67918   1.000
    O40     O    0.56855   0.85122   0.72449   1.000
    O41     O    0.40546   0.69673   0.69090   1.000
    Zr42    Zr   0.14192   0.16863   0.08235   1.000
    O43     O    0.15592   0.15884   0.03178   1.000
    O44     O    0.15588   0.26509   0.10800   1.000
    O45     O    0.19812   0.12071   0.11598   1.000
    O46     O    0.03882   0.07919   0.08349   1.000
    Zr47    Zr   0.85804   0.83159   0.92040   1.000
    O48     O    0.84409   0.73512   0.89475   1.000
    O49     O    0.80183   0.87951   0.88677   1.000
    O50     O    0.84402   0.84137   0.97158   1.000
    O51     O    0.96113   0.92102   0.91944   1.000
    Zr52    Zr   0.48256   0.19457   0.82653   1.000
    O53     O    0.58576   0.30481   0.82992   1.000
    O54     O    0.43495   0.16171   0.77794   1.000
    O55     O    0.38511   0.17326   0.85766   1.000
    O56     O    0.54446   0.12294   0.82292   1.000
    Zr57    Zr   0.64198   0.66865   0.42040   1.000
    O58     O    0.65596   0.65884   0.47159   1.000
    O59     O    0.53888   0.57921   0.41926   1.000
    O60     O    0.65594   0.76511   0.39475   1.000
    O61     O    0.69817   0.62072   0.38677   1.000
    Zr62    Zr   0.99657   0.70642   0.18516   1.000
    O63     O    0.93134   0.64896   0.22447   1.000
    O64     O    0.05116   0.62442   0.17916   1.000
    O65     O    0.09441   0.80345   0.19088   1.000
    O66     O    0.94433   0.75457   0.15054   1.000
    Zr67    Zr   0.35799   0.33154   0.58236   1.000
    O68     O    0.46109   0.42097   0.58350   1.000
    O69     O    0.30179   0.37946   0.61599   1.000
    O70     O    0.34403   0.23508   0.60801   1.000
    O71     O    0.34400   0.34134   0.53118   1.000
loop_
    _geom_bond_atom_site_label_1
    _geom_bond_atom_site_label_2
    _geom_bond_distance
    _geom_bond_site_symmetry_2
    _ccdc_geom_bond_type
    Zr12   O13       1.02540      .   S
    N9     O13       2.21228      .   S
    Zr12   O14       1.03898      .   S
    N8     O14       2.33935      .   S
    Zr12   O15       0.99769  1_655   S
    N11    O15       2.14567      .   S
    Zr12   O16       1.08920  1_655   S
    N10    O16       2.40957  1_545   S
    Zr17   O18       1.03272  1_455   S
    N8     O18       2.24338      .   S
    Zr17   O19       0.99786  1_455   S
    N5     O19       2.14799  1_565   S
    Zr17   O20       1.01015      .   S
    N4     O20       2.17955      .   S
    Zr17   O21       0.99100      .   S
    N11    O21       2.13247      .   S
    Zr22   O23       1.08912  1_455   S
    N0     O23       2.40939  1_565   S
    Zr22   O24       1.02538      .   S
    N1     O24       2.21223      .   S
    Zr22   O25       1.03905      .   S
    N3     O25       2.33955      .   S
    Zr22   O26       0.99778  1_455   S
    N2     O26       2.14589      .   S
    Zr27   O28       1.03294      .   S
    N0     O28       2.24396  1_565   S
    Zr27   O29       1.00784      .   S
    N1     O29       2.17318      .   S
    Zr27   O30       0.99775      .   S
    N2     O30       2.14774      .   S
    Zr27   O31       0.99105      .   S
    N7     O31       2.13257      .   S
    Zr32   O33       1.02536      .   S
    N6     O33       2.21218      .   S
    Zr32   O34       1.03905      .   S
    N0     O34       2.33954      .   S
    Zr32   O35       1.08924      .   S
    N3     O35       2.40965      .   S
    Zr32   O36       0.99780      .   S
    N7     O36       2.14589  1_545   S
    Zr37   O38       1.00790      .   S
    N9     O38       2.17332      .   S
    Zr37   O39       1.03284      .   S
    N10    O39       2.24367  1_545   S
    Zr37   O40       0.99100      .   S
    N5     O40       2.13245      .   S
    Zr37   O41       0.99778      .   S
    N11    O41       2.14781      .   S
    Zr42   O43       1.00331      .   S
    N4     O43       2.18373  1_556   S
    Zr42   O44       0.97144      .   S
    N3     O44       2.09290      .   S
    Zr42   O45       1.01657      .   S
    N7     O45       2.19082      .   S
    Zr42   O46       0.98518      .   S
    N6     O46       2.11774  1_665   S
    Zr47   O48       0.97143      .   S
    N8     O48       2.09290      .   S
    Zr47   O49       1.01663      .   S
    N5     O49       2.19096      .   S
    Zr47   O50       1.01500      .   S
    N6     O50       2.18540  1_554   S
    Zr47   O51       0.98502      .   S
    N4     O51       2.11768  1_445   S
    Zr52   O53       1.08936      .   S
    N8     O53       2.40994      .   S
    Zr52   O54       1.03902      .   S
    N10    O54       2.33945      .   S
    Zr52   O55       1.02742      .   S
    N4     O55       2.21799      .   S
    Zr52   O56       0.99764      .   S
    N5     O56       2.14552  1_565   S
    Zr57   O58       1.01507      .   S
    N9     O58       2.18561      .   S
    Zr57   O59       0.98522      .   S
    N1     O59       2.11780      .   S
    Zr57   O60       0.97152      .   S
    N0     O60       2.09308      .   S
    Zr57   O61       1.01655      .   S
    N2     O61       2.19076      .   S
    Zr62   O63       0.99107      .   S
    N2     O63       2.13264      .   S
    Zr62   O64       1.03288  1_655   S
    N3     O64       2.24380      .   S
    Zr62   O65       0.99782  1_655   S
    N7     O65       2.14790  1_545   S
    Zr62   O66       1.00781      .   S
    N6     O66       2.17316      .   S
    Zr67   O68       0.98516      .   S
    N9     O68       2.11765      .   S
    Zr67   O69       1.01660      .   S
    N11    O69       2.19088      .   S
    Zr67   O70       0.97149      .   S
    N10    O70       2.09301      .   S
    Zr67   O71       1.01506      .   S
    N1     O71       2.18558      .   S
