# CIF file generated by openbabel 2.4.90, see http://openbabel.sf.net
data_I
_chemical_name_common ''
_cell_length_a 11.307
_cell_length_b 24.27
_cell_length_c 22.852
_cell_angle_alpha 99.337
_cell_angle_beta 89.988
_cell_angle_gamma 90
_space_group_name_H-M_alt 'P 1'
_space_group_name_Hall 'P 1'
loop_
    _symmetry_equiv_pos_as_xyz
    x,y,z
loop_
    _atom_site_label
    _atom_site_type_symbol
    _atom_site_fract_x
    _atom_site_fract_y
    _atom_site_fract_z
    _atom_site_occupancy
    O0      O    0.36159   0.04373   0.88971   1.000
    S1      S    0.23370   0.05105   0.89263   1.000
    S2      S    0.23328   0.55107   0.89281   1.000
    S3      S    0.73369   0.05105   0.89263   1.000
    S4      S    0.73327   0.55107   0.89281   1.000
    S5      S    0.48304   0.19860   0.60708   1.000
    S6      S    0.48280   0.69863   0.60715   1.000
    S7      S    0.98303   0.19860   0.60708   1.000
    S8      S    0.98279   0.69863   0.60715   1.000
    S9      S    0.26687   0.44894   0.10718   1.000
    S10     S    0.26640   0.94892   0.10734   1.000
    S11     S    0.76686   0.44894   0.10718   1.000
    S12     S    0.76639   0.94892   0.10734   1.000
    S13     S    0.01737   0.30137   0.39285   1.000
    S14     S    0.01708   0.80139   0.39200   1.000
    S15     S    0.51736   0.30137   0.39285   1.000
    S16     S    0.51707   0.80139   0.39200   1.000
    O17     O    0.36117   0.54377   0.88984   1.000
    O18     O    0.86158   0.04373   0.88971   1.000
    O19     O    0.86116   0.54377   0.88984   1.000
    O20     O    0.11091   0.20602   0.61012   1.000
    O21     O    0.11068   0.70603   0.61015   1.000
    O22     O    0.61090   0.20602   0.61012   1.000
    O23     O    0.61067   0.70603   0.61015   1.000
    O24     O    0.13896   0.45622   0.11014   1.000
    O25     O    0.13850   0.95623   0.11026   1.000
    O26     O    0.63895   0.45622   0.11014   1.000
    O27     O    0.63849   0.95623   0.11026   1.000
    O28     O    0.38948   0.29396   0.38985   1.000
    O29     O    0.38921   0.79397   0.38987   1.000
    O30     O    0.88947   0.29396   0.38985   1.000
    O31     O    0.88919   0.79397   0.38987   1.000
loop_
    _geom_bond_atom_site_label_1
    _geom_bond_atom_site_label_2
    _geom_bond_distance
    _geom_bond_site_symmetry_2
    _ccdc_geom_bond_type
    S9     O24       1.45717      .   S
    S11    O26       1.45718      .   S
    S12    O27       1.45718      .   S
    S10    O25       1.45718      .   S
    O28    S15       1.45723      .   S
    O30    S13       1.45750  1_655   S
    O31    S14       1.45704  1_655   S
    O29    S16       1.45677      .   S
    S5     O22       1.45719      .   S
    S7     O20       1.45744  1_655   S
    S8     O21       1.45745  1_655   S
    S6     O23       1.45719      .   S
    O18    S3        1.45720      .   S
    O0     S1        1.45719      .   S
    O19    S4        1.45718      .   S
    O17    S2        1.45717      .   S
