# CIF file generated by openbabel 2.4.90, see http://openbabel.sf.net
data_I
_chemical_name_common ''
_cell_length_a 11.307
_cell_length_b 24.27
_cell_length_c 22.852
_cell_angle_alpha 99.337
_cell_angle_beta 89.988
_cell_angle_gamma 90
_space_group_name_H-M_alt 'P 1'
_space_group_name_Hall 'P 1'
loop_
    _symmetry_equiv_pos_as_xyz
    x,y,z
loop_
    _atom_site_label
    _atom_site_type_symbol
    _atom_site_fract_x
    _atom_site_fract_y
    _atom_site_fract_z
    _atom_site_occupancy
    H0      H    0.31926   0.13184   0.09917   1.000
    H1      H    0.31923   0.63189   0.09930   1.000
    H2      H    0.81925   0.13184   0.09917   1.000
    H3      H    0.81922   0.63188   0.09930   1.000
    H4      H    0.36544   0.10953   0.99118   1.000
    H5      H    0.36515   0.60958   0.99129   1.000
    H6      H    0.86543   0.10953   0.99118   1.000
    H7      H    0.86514   0.60958   0.99129   1.000
    H8      H    0.01914   0.03692   0.95781   1.000
    H9      H    0.01875   0.53700   0.95812   1.000
    H10     H    0.51913   0.03692   0.95781   1.000
    H11     H    0.51874   0.53700   0.95812   1.000
    H12     H    0.47403   0.05972   0.06632   1.000
    H13     H    0.47394   0.55979   0.06666   1.000
    H14     H    0.97402   0.05972   0.06632   1.000
    H15     H    0.97392   0.55979   0.06666   1.000
    H16     H    0.36626   0.14874   0.88062   1.000
    H17     H    0.36584   0.64870   0.88074   1.000
    H18     H    0.86625   0.14874   0.88062   1.000
    H19     H    0.86583   0.64870   0.88074   1.000
    H20     H    0.32485   0.22805   0.82679   1.000
    H21     H    0.32458   0.72797   0.82683   1.000
    H22     H    0.82485   0.22805   0.82679   1.000
    H23     H    0.82457   0.72797   0.82683   1.000
    H24     H    0.48328   0.15888   0.77618   1.000
    H25     H    0.48296   0.65885   0.77622   1.000
    H26     H    0.98327   0.15888   0.77618   1.000
    H27     H    0.98295   0.65885   0.77622   1.000
    H28     H    0.02612   0.07697   0.82685   1.000
    H29     H    0.02564   0.57698   0.82690   1.000
    H30     H    0.52611   0.07697   0.82685   1.000
    H31     H    0.52563   0.57698   0.82699   1.000
    H32     H    0.06965   0.11850   0.40039   1.000
    H33     H    0.06925   0.61843   0.40050   1.000
    H34     H    0.56964   0.11850   0.40039   1.000
    H35     H    0.56924   0.61843   0.40050   1.000
    H36     H    0.11526   0.14045   0.50845   1.000
    H37     H    0.11492   0.64044   0.50850   1.000
    H38     H    0.61525   0.14045   0.50845   1.000
    H39     H    0.61491   0.64044   0.50855   1.000
    H40     H    0.26864   0.21280   0.54173   1.000
    H41     H    0.26833   0.71283   0.54183   1.000
    H42     H    0.76863   0.21280   0.54173   1.000
    H43     H    0.76833   0.71283   0.54183   1.000
    H44     H    0.22412   0.19035   0.43315   1.000
    H45     H    0.22377   0.69034   0.43325   1.000
    H46     H    0.72411   0.19036   0.43315   1.000
    H47     H    0.72377   0.69034   0.43325   1.000
    H48     H    0.11580   0.10087   0.61884   1.000
    H49     H    0.11551   0.60088   0.61885   1.000
    H50     H    0.61579   0.10087   0.61884   1.000
    H51     H    0.61550   0.60088   0.61885   1.000
    H52     H    0.07489   0.02157   0.67274   1.000
    H53     H    0.07454   0.52156   0.67272   1.000
    H54     H    0.57488   0.02157   0.67274   1.000
    H55     H    0.57453   0.52156   0.67272   1.000
    H56     H    0.23311   0.09044   0.72352   1.000
    H57     H    0.23280   0.59046   0.72352   1.000
    H58     H    0.73310   0.09044   0.72352   1.000
    H59     H    0.73279   0.59046   0.72352   1.000
    H60     H    0.27543   0.17235   0.67279   1.000
    H61     H    0.27518   0.67239   0.67282   1.000
    H62     H    0.77542   0.17235   0.67279   1.000
    H63     H    0.77517   0.67240   0.67282   1.000
    H64     H    0.18092   0.36812   0.90070   1.000
    H65     H    0.18082   0.86814   0.90080   1.000
    H66     H    0.68091   0.36812   0.90070   1.000
    H67     H    0.68081   0.86814   0.90080   1.000
    H68     H    0.13500   0.39044   0.00871   1.000
    H69     H    0.13466   0.89045   0.00879   1.000
    H70     H    0.63500   0.39044   0.00871   1.000
    H71     H    0.63465   0.89044   0.00879   1.000
    H72     H    0.48141   0.46302   0.04186   1.000
    H73     H    0.48098   0.96305   0.04215   1.000
    H74     H    0.98140   0.46302   0.04186   1.000
    H75     H    0.98097   0.96305   0.04215   1.000
    H76     H    0.02621   0.44023   0.93333   1.000
    H77     H    0.02606   0.94025   0.93364   1.000
    H78     H    0.52620   0.44023   0.93333   1.000
    H79     H    0.52605   0.94025   0.93364   1.000
    H80     H    0.13436   0.35131   0.11924   1.000
    H81     H    0.13383   0.85124   0.11936   1.000
    H82     H    0.63435   0.35131   0.11924   1.000
    H83     H    0.63382   0.85124   0.11936   1.000
    H84     H    0.17561   0.27205   0.17316   1.000
    H85     H    0.17521   0.77193   0.17319   1.000
    H86     H    0.67561   0.27205   0.17316   1.000
    H87     H    0.67520   0.77193   0.17319   1.000
    H88     H    0.01722   0.34118   0.22378   1.000
    H89     H    0.01679   0.84109   0.22381   1.000
    H90     H    0.51721   0.34118   0.22378   1.000
    H91     H    0.51678   0.84109   0.22381   1.000
    H92     H    0.47454   0.42305   0.17300   1.000
    H93     H    0.47397   0.92301   0.17314   1.000
    H94     H    0.97453   0.42305   0.17300   1.000
    H95     H    0.97396   0.92301   0.17314   1.000
    H96     H    0.43087   0.38155   0.59950   1.000
    H97     H    0.43053   0.88149   0.59958   1.000
    H98     H    0.93086   0.38155   0.59950   1.000
    H99     H    0.93053   0.88149   0.59958   1.000
    H100    H    0.38523   0.35954   0.49143   1.000
    H101    H    0.38490   0.85954   0.49152   1.000
    H102    H    0.88522   0.35954   0.49143   1.000
    H103    H    0.88490   0.85954   0.49152   1.000
    H104    H    0.23182   0.28715   0.45819   1.000
    H105    H    0.23152   0.78718   0.45824   1.000
    H106    H    0.73182   0.28716   0.45819   1.000
    H107    H    0.73151   0.78719   0.45824   1.000
    H108    H    0.27634   0.30964   0.56677   1.000
    H109    H    0.27604   0.80963   0.56682   1.000
    H110    H    0.77633   0.30964   0.56677   1.000
    H111    H    0.77604   0.80964   0.56682   1.000
    C112    C    0.35683   0.40301   0.91057   1.000
    H113    H    0.38466   0.39911   0.38116   1.000
    H114    H    0.38430   0.89911   0.38115   1.000
    H115    H    0.88465   0.39912   0.38116   1.000
    H116    H    0.88428   0.89911   0.38115   1.000
    H117    H    0.42561   0.47844   0.32729   1.000
    H118    H    0.42517   0.97841   0.32724   1.000
    H119    H    0.92560   0.47844   0.32729   1.000
    H120    H    0.92516   0.97842   0.32720   1.000
    H121    H    0.26737   0.40955   0.27649   1.000
    H122    H    0.26697   0.90957   0.27645   1.000
    H123    H    0.76736   0.40955   0.27649   1.000
    H124    H    0.76696   0.90957   0.27645   1.000
    H125    H    0.22501   0.32761   0.32719   1.000
    H126    H    0.22467   0.82764   0.32718   1.000
    H127    H    0.72500   0.32761   0.32700   1.000
    H128    H    0.72466   0.82764   0.32718   1.000
    C129    C    0.14335   0.09697   0.08919   1.000
    C130    C    0.14331   0.59701   0.08942   1.000
    C131    C    0.64334   0.09697   0.08919   1.000
    C132    C    0.64330   0.59701   0.08942   1.000
    C133    C    0.25361   0.11141   0.06805   1.000
    C134    C    0.25352   0.61146   0.06822   1.000
    C135    C    0.75361   0.11141   0.06805   1.000
    C136    C    0.75351   0.61145   0.06822   1.000
    C137    C    0.27959   0.09896   0.00771   1.000
    C138    C    0.27934   0.59901   0.00786   1.000
    C139    C    0.77958   0.09896   0.00771   1.000
    C140    C    0.77933   0.59901   0.00786   1.000
    C141    C    0.19534   0.07133   0.96870   1.000
    C142    C    0.19501   0.57139   0.96890   1.000
    C143    C    0.69533   0.07133   0.96870   1.000
    C144    C    0.69500   0.57138   0.96890   1.000
    C145    C    0.08423   0.05761   0.98891   1.000
    C146    C    0.08393   0.55769   0.98910   1.000
    C147    C    0.58422   0.05761   0.98891   1.000
    C148    C    0.58392   0.55769   0.98910   1.000
    C149    C    0.05908   0.07070   0.04921   1.000
    C150    C    0.05893   0.57077   0.04949   1.000
    C151    C    0.55907   0.07070   0.04921   1.000
    C152    C    0.55892   0.57077   0.04949   1.000
    C153    C    0.19783   0.10888   0.85730   1.000
    C154    C    0.19737   0.60887   0.85744   1.000
    C155    C    0.69782   0.10888   0.85730   1.000
    C156    C    0.69736   0.60887   0.85744   1.000
    C157    C    0.28195   0.15140   0.85831   1.000
    C158    C    0.28154   0.65136   0.85841   1.000
    C159    C    0.78194   0.15140   0.85830   1.000
    C160    C    0.78153   0.65136   0.85841   1.000
    C161    C    0.25838   0.19587   0.82854   1.000
    C162    C    0.25806   0.69580   0.82860   1.000
    C163    C    0.75836   0.19587   0.82854   1.000
    C164    C    0.75805   0.69580   0.82860   1.000
    C165    C    0.15032   0.19885   0.79909   1.000
    C166    C    0.15004   0.69879   0.79913   1.000
    C167    C    0.65031   0.19885   0.79909   1.000
    C168    C    0.65002   0.69879   0.79913   1.000
    C169    C    0.06648   0.15636   0.79951   1.000
    C170    C    0.06614   0.65633   0.79957   1.000
    C171    C    0.56647   0.15636   0.79951   1.000
    C172    C    0.56613   0.65633   0.79957   1.000
    C173    C    0.08973   0.11081   0.82798   1.000
    C174    C    0.08930   0.61080   0.82809   1.000
    C175    C    0.58972   0.11081   0.82798   1.000
    C176    C    0.58929   0.61080   0.82809   1.000
    O177    O    0.15441   0.50443   0.86935   1.000
    O178    O    0.65475   0.00445   0.86913   1.000
    O179    O    0.65441   0.50443   0.86935   1.000
    C180    C    0.39359   0.15327   0.41031   1.000
    C181    C    0.39323   0.65323   0.41042   1.000
    C182    C    0.89358   0.15327   0.41031   1.000
    C183    C    0.89321   0.65323   0.41042   1.000
    C184    C    0.00380   0.13880   0.43149   1.000
    C185    C    0.00344   0.63876   0.43160   1.000
    C186    C    0.50379   0.13880   0.43149   1.000
    C187    C    0.50342   0.63876   0.43160   1.000
    C188    C    0.02945   0.15105   0.49188   1.000
    C189    C    0.02912   0.65104   0.49198   1.000
    C190    C    0.52944   0.15105   0.49188   1.000
    C191    C    0.52911   0.65104   0.49198   1.000
    C192    C    0.44499   0.17850   0.53092   1.000
    C193    C    0.44468   0.67852   0.53101   1.000
    C194    C    0.94498   0.17850   0.53092   1.000
    C195    C    0.94467   0.67852   0.53101   1.000
    C196    C    0.33394   0.19223   0.51065   1.000
    C197    C    0.33362   0.69224   0.51075   1.000
    C198    C    0.83393   0.19223   0.51065   1.000
    C199    C    0.83361   0.69225   0.51075   1.000
    C200    C    0.30909   0.17934   0.45030   1.000
    C201    C    0.30874   0.67933   0.45040   1.000
    C202    C    0.80908   0.17934   0.45030   1.000
    C203    C    0.80873   0.67934   0.45040   1.000
    C204    C    0.44725   0.14063   0.64226   1.000
    C205    C    0.44700   0.64066   0.64230   1.000
    C206    C    0.94724   0.14063   0.64226   1.000
    C207    C    0.94699   0.64066   0.64230   1.000
    C208    C    0.03154   0.09817   0.64120   1.000
    C209    C    0.03126   0.59818   0.64122   1.000
    C210    C    0.53153   0.09817   0.64120   1.000
    C211    C    0.53124   0.59818   0.64122   1.000
    C212    C    0.00825   0.05369   0.67101   1.000
    C213    C    0.00794   0.55369   0.67101   1.000
    C214    C    0.50824   0.05369   0.67101   1.000
    C215    C    0.50792   0.55369   0.67101   1.000
    C216    C    0.40032   0.05062   0.70050   1.000
    C217    C    0.40001   0.55064   0.70050   1.000
    C218    C    0.90031   0.05062   0.70058   1.000
    C219    C    0.90000   0.55064   0.70050   1.000
    C220    C    0.31624   0.09301   0.70010   1.000
    C221    C    0.31594   0.59303   0.70015   1.000
    C222    C    0.81623   0.09301   0.70010   1.000
    C223    C    0.81593   0.59303   0.70015   1.000
    C224    C    0.33921   0.13858   0.67163   1.000
    C225    C    0.33894   0.63861   0.67166   1.000
    C226    C    0.83920   0.13858   0.67163   1.000
    C227    C    0.83893   0.63861   0.67160   1.000
    C228    C    0.35673   0.90302   0.91077   1.000
    C229    C    0.85682   0.40301   0.91057   1.000
    C230    C    0.85672   0.90302   0.91077   1.000
    C231    C    0.24662   0.38856   0.93178   1.000
    C232    C    0.24647   0.88857   0.93192   1.000
    C233    C    0.74662   0.38855   0.93178   1.000
    C234    C    0.74646   0.88857   0.93192   1.000
    C235    C    0.22081   0.40100   0.99213   1.000
    C236    C    0.22051   0.90101   0.99226   1.000
    C237    C    0.72080   0.40100   0.99213   1.000
    C238    C    0.72050   0.90101   0.99226   1.000
    C239    C    0.30514   0.42863   0.03109   1.000
    C240    C    0.30476   0.92864   0.03127   1.000
    C241    C    0.80513   0.42863   0.03109   1.000
    C242    C    0.80475   0.92864   0.03127   1.000
    C243    C    0.41622   0.44233   0.01081   1.000
    C244    C    0.41588   0.94236   0.01105   1.000
    C245    C    0.91621   0.44233   0.01081   1.000
    C246    C    0.91587   0.94236   0.01105   1.000
    C247    C    0.44121   0.42924   0.95049   1.000
    C248    C    0.44101   0.92927   0.95075   1.000
    C249    C    0.94120   0.42924   0.95049   1.000
    C250    C    0.94100   0.92927   0.95075   1.000
    C251    C    0.30281   0.39115   0.14255   1.000
    C252    C    0.30227   0.89110   0.14268   1.000
    C253    C    0.80280   0.39115   0.14255   1.000
    C254    C    0.80226   0.89110   0.14268   1.000
    C255    C    0.21864   0.34866   0.14157   1.000
    C256    C    0.21814   0.84859   0.14160   1.000
    C257    C    0.71864   0.34866   0.14157   1.000
    C258    C    0.71813   0.84858   0.14167   1.000
    C259    C    0.24213   0.30422   0.17139   1.000
    C260    C    0.24170   0.80411   0.17140   1.000
    C261    C    0.74212   0.30422   0.17139   1.000
    C262    C    0.74169   0.80411   0.17144   1.000
    C263    C    0.35014   0.30124   0.20088   1.000
    C264    C    0.34974   0.80113   0.20090   1.000
    C265    C    0.85013   0.30124   0.20088   1.000
    C266    C    0.84974   0.80113   0.20090   1.000
    C267    C    0.43404   0.34370   0.20042   1.000
    C268    C    0.43359   0.84361   0.20040   1.000
    C269    C    0.93402   0.34370   0.20042   1.000
    C270    C    0.93358   0.84361   0.20048   1.000
    C271    C    0.41088   0.38922   0.17190   1.000
    C272    C    0.41036   0.88916   0.17201   1.000
    C273    C    0.91087   0.38922   0.17190   1.000
    C274    C    0.91035   0.88916   0.17201   1.000
    C275    C    0.10688   0.34675   0.58958   1.000
    C276    C    0.10659   0.84672   0.58966   1.000
    C277    C    0.60687   0.34675   0.58958   1.000
    C278    C    0.60657   0.84672   0.58966   1.000
    C279    C    0.49668   0.36122   0.56839   1.000
    C280    C    0.49637   0.86119   0.56840   1.000
    C281    C    0.99667   0.36122   0.56839   1.000
    C282    C    0.99636   0.86119   0.56840   1.000
    C283    C    0.47103   0.34894   0.50800   1.000
    C284    C    0.47071   0.84894   0.50809   1.000
    C285    C    0.97101   0.34894   0.50800   1.000
    C286    C    0.97070   0.84894   0.50809   1.000
    C287    C    0.05548   0.32146   0.46899   1.000
    C288    C    0.05517   0.82149   0.46905   1.000
    C289    C    0.55547   0.32146   0.46899   1.000
    C290    C    0.55516   0.82149   0.46905   1.000
    C291    C    0.16653   0.30774   0.48926   1.000
    C292    C    0.16622   0.80776   0.48931   1.000
    C293    C    0.66652   0.30774   0.48926   1.000
    C294    C    0.66621   0.80776   0.48931   1.000
    C295    C    0.19138   0.32065   0.54962   1.000
    C296    C    0.19108   0.82064   0.54967   1.000
    C297    C    0.69137   0.32065   0.54962   1.000
    C298    C    0.69107   0.82064   0.54967   1.000
    C299    C    0.05318   0.35934   0.35771   1.000
    C300    C    0.05285   0.85936   0.35772   1.000
    C301    C    0.55317   0.35934   0.35770   1.000
    C302    C    0.55284   0.85936   0.35772   1.000
    C303    C    0.46891   0.40182   0.35879   1.000
    C304    C    0.46855   0.90182   0.35878   1.000
    C305    C    0.96890   0.40182   0.35879   1.000
    C306    C    0.96854   0.90182   0.35878   1.000
    C307    C    0.49222   0.44630   0.32900   1.000
    C308    C    0.49182   0.94630   0.32897   1.000
    C309    C    0.99221   0.44630   0.32900   1.000
    C310    C    0.99181   0.94630   0.32897   1.000
    C311    C    0.10014   0.44936   0.29942   1.000
    C312    C    0.09974   0.94937   0.29900   1.000
    C313    C    0.60013   0.44936   0.29942   1.000
    C314    C    0.59973   0.94937   0.29900   1.000
    C315    C    0.18422   0.40697   0.29986   1.000
    C316    C    0.18383   0.90699   0.29984   1.000
    C317    C    0.68421   0.40697   0.29986   1.000
    C318    C    0.68383   0.90699   0.29984   1.000
    C319    C    0.16123   0.36140   0.32835   1.000
    C320    C    0.16088   0.86142   0.32834   1.000
    C321    C    0.66122   0.36140   0.32835   1.000
    C322    C    0.66087   0.86142   0.32834   1.000
    O323    O    0.15476   0.00445   0.86913   1.000
    O324    O    0.40404   0.24515   0.63067   1.000
    O325    O    0.40383   0.74518   0.63076   1.000
    O326    O    0.90403   0.24515   0.63067   1.000
    O327    O    0.90382   0.74518   0.63076   1.000
    O328    O    0.34568   0.49559   0.13065   1.000
    O329    O    0.34530   0.99553   0.13080   1.000
    O330    O    0.84567   0.49559   0.13065   1.000
    O331    O    0.84529   0.99553   0.13084   1.000
    O332    O    0.09635   0.25482   0.36923   1.000
    O333    O    0.09607   0.75484   0.36929   1.000
    O334    O    0.59634   0.25482   0.36923   1.000
    O335    O    0.59606   0.75484   0.36929   1.000
loop_
    _geom_bond_atom_site_label_1
    _geom_bond_atom_site_label_2
    _geom_bond_distance
    _geom_bond_site_symmetry_2
    _ccdc_geom_bond_type
    C137   C133      1.39411      .   S
    C137   C141      1.39937  1_554   S
    C137   H4        1.08720  1_554   S
    C139   C135      1.39410      .   S
    C139   C143      1.39936  1_554   S
    C139   H6        1.08720  1_554   S
    C138   C134      1.39417      .   S
    C138   C142      1.39933  1_554   S
    C138   H5        1.08713  1_554   S
    C140   C136      1.39417      .   S
    C140   C144      1.39935  1_554   S
    C140   H7        1.08712  1_554   S
    H70    C237      1.08716  1_554   S
    H68    C235      1.08717  1_554   S
    H71    C238      1.08716  1_554   S
    H69    C236      1.08717  1_554   S
    C243   C239      1.39727      .   S
    C243   H72       1.08787      .   S
    C243   C247      1.39233  1_554   S
    C245   C241      1.39727      .   S
    C245   H74       1.08787      .   S
    C245   C249      1.39233  1_554   S
    C244   C240      1.39727      .   S
    C244   H73       1.08790      .   S
    C244   C248      1.39222  1_554   S
    C246   C242      1.39727      .   S
    C246   H75       1.08790      .   S
    C246   C250      1.39222  1_554   S
    C241   C237      1.39939  1_554   S
    C239   C235      1.39938  1_554   S
    C242   C238      1.39939  1_554   S
    C240   C236      1.39939  1_554   S
    C149   H14       1.08742  1_455   S
    C149   C129      1.40009      .   S
    C149   C145      1.39226  1_554   S
    C151   H12       1.08719      .   S
    C151   C131      1.40009      .   S
    C151   C147      1.39226  1_554   S
    C152   H13       1.08728      .   S
    C152   C132      1.40006      .   S
    C152   C148      1.39386  1_554   S
    C150   H15       1.08752  1_455   S
    C150   C130      1.40007      .   S
    C150   C146      1.39386  1_554   S
    C133   C129      1.40199      .   S
    C133   H0        1.09011      .   S
    C135   C131      1.40200      .   S
    C135   H2        1.09011      .   S
    C134   C130      1.40192      .   S
    C134   H1        1.09005      .   S
    C136   C132      1.40193      .   S
    C136   H3        1.09005      .   S
    H82    C257      1.08797      .   S
    H80    C255      1.08798      .   S
    H83    C258      1.08800      .   S
    H81    C256      1.08723      .   S
    C257   C253      1.40079      .   S
    C257   C261      1.39170      .   S
    C255   C251      1.40079      .   S
    C255   C259      1.39170      .   S
    C256   C252      1.40064      .   S
    C256   C260      1.39219      .   S
    C258   C254      1.40080      .   S
    C258   C262      1.39177      .   S
    C253   C273      1.39849      .   S
    C251   C271      1.39850      .   S
    C254   C274      1.39850      .   S
    C252   C272      1.39850      .   S
    C261   H86       1.08946      .   S
    C261   C265      1.40249      .   S
    C259   H84       1.08946      .   S
    C259   C263      1.40251      .   S
    C260   H85       1.08962      .   S
    C260   C264      1.40298      .   S
    C262   H87       1.08948      .   S
    C262   C266      1.40252      .   S
    C273   H94       1.08897      .   S
    C273   C269      1.39562      .   S
    C271   H92       1.08897      .   S
    C271   C267      1.39562      .   S
    C274   H95       1.08896      .   S
    C274   C270      1.39565      .   S
    C272   H93       1.08896      .   S
    C272   C268      1.39457      .   S
    C268   C264      1.40215      .   S
    C268   H91       1.08881      .   S
    C267   C263      1.40199      .   S
    C267   H90       1.08806      .   S
    C269   C265      1.40199      .   S
    C269   H88       1.08827  1_655   S
    C270   C266      1.40192      .   S
    C270   H89       1.08812  1_655   S
    H124   C318      1.08801      .   S
    H122   C316      1.08802      .   S
    H121   C315      1.08792      .   S
    H123   C317      1.08793      .   S
    C312   C316      1.40316      .   S
    C312   C310      1.40720  1_455   S
    C314   C318      1.40316      .   S
    C314   C308      1.40698      .   S
    C313   C317      1.40199      .   S
    C313   C307      1.40252      .   S
    C311   C315      1.40199      .   S
    C311   C309      1.40274  1_455   S
    C316   C320      1.39582      .   S
    C318   C322      1.39582      .   S
    C315   C319      1.39584      .   S
    C317   C321      1.39582      .   S
    H127   C321      1.08858      .   S
    H128   C322      1.08900      .   S
    H126   C320      1.08900      .   S
    H125   C319      1.08897      .   S
    H120   C310      1.08966      .   S
    H118   C308      1.08951      .   S
    H117   C307      1.08949      .   S
    H119   C309      1.08950      .   S
    C320   C300      1.39857      .   S
    C322   C302      1.39857      .   S
    C321   C301      1.39846      .   S
    C319   C299      1.39855      .   S
    C308   C304      1.39182      .   S
    C310   C306      1.39182      .   S
    C307   C303      1.39174      .   S
    C309   C305      1.39174      .   S
    C301   C303      1.40091      .   S
    C299   C305      1.40111  1_455   S
    C302   C304      1.40096      .   S
    C300   C306      1.40114  1_455   S
    C306   H116      1.08808      .   S
    C304   H114      1.08809      .   S
    C305   H115      1.08804      .   S
    C303   H113      1.08804      .   S
    H32    C184      1.09011      .   S
    H34    C186      1.09009      .   S
    H33    C185      1.09005      .   S
    H35    C187      1.09005      .   S
    C180   C186      1.40201      .   S
    C180   C200      1.40013      .   S
    C182   C184      1.40222  1_655   S
    C182   C202      1.40014      .   S
    C181   C187      1.40198      .   S
    C181   C201      1.40014      .   S
    C183   C185      1.40222  1_655   S
    C183   C203      1.40013      .   S
    C184   C188      1.39429      .   S
    C186   C190      1.39429      .   S
    C185   C189      1.39418      .   S
    C187   C191      1.39418      .   S
    H46    C202      1.08724      .   S
    H44    C200      1.08724      .   S
    H45    C201      1.08724      .   S
    H47    C203      1.08724      .   S
    C200   C196      1.39244      .   S
    C202   C198      1.39244      .   S
    C201   C197      1.39255      .   S
    C203   C199      1.39255      .   S
    H106   C293      1.08783      .   S
    H104   C291      1.08783      .   S
    H107   C294      1.08776      .   S
    H105   C292      1.08775      .   S
    C289   C293      1.39732      .   S
    C289   C283      1.39925      .   S
    C287   C291      1.39732      .   S
    C287   C285      1.39943  1_455   S
    C290   C294      1.39727      .   S
    C290   C284      1.39941      .   S
    C288   C292      1.39728      .   S
    C288   C286      1.39960  1_455   S
    C293   C297      1.39271      .   S
    C291   C295      1.39271      .   S
    C292   C296      1.39269      .   S
    C294   C298      1.39269      .   S
    H100   C283      1.08736      .   S
    H102   C285      1.08735      .   S
    H101   C284      1.08749      .   S
    H103   C286      1.08748      .   S
    C190   H38       1.08747      .   S
    C190   C192      1.39943      .   S
    C188   H36       1.08748      .   S
    C188   C194      1.39960  1_455   S
    C191   H39       1.08743      .   S
    C191   C193      1.39941      .   S
    C189   H37       1.08698      .   S
    C189   C195      1.39960  1_455   S
    C285   C281      1.39434      .   S
    C283   C279      1.39434      .   S
    C284   C280      1.39257      .   S
    C286   C282      1.39257      .   S
    C198   C194      1.39733      .   S
    C198   H42       1.08791      .   S
    C196   C192      1.39732      .   S
    C196   H40       1.08791      .   S
    C197   C193      1.39731      .   S
    C197   H41       1.08790      .   S
    C199   C195      1.39730      .   S
    C199   H43       1.08790      .   S
    C295   H108      1.08718      .   S
    C295   C275      1.39999      .   S
    C297   H110      1.08717      .   S
    C297   C277      1.39998      .   S
    C296   H109      1.08726      .   S
    C296   C276      1.40014      .   S
    C298   H111      1.08726      .   S
    C298   C278      1.40015      .   S
    C279   C277      1.40198      .   S
    C279   H96       1.09023      .   S
    C281   C275      1.40221  1_655   S
    C281   H98       1.09023      .   S
    C280   C278      1.40270      .   S
    C280   H97       1.09110      .   S
    C282   C276      1.40294  1_655   S
    C282   H99       1.09110      .   S
    H50    C210      1.08802      .   S
    H48    C208      1.08802      .   S
    H51    C211      1.08808      .   S
    H49    C209      1.08806      .   S
    C208   C206      1.40114  1_455   S
    C208   C212      1.39182      .   S
    C210   C204      1.40095      .   S
    C210   C214      1.39184      .   S
    C209   C207      1.40112  1_455   S
    C209   C213      1.39179      .   S
    C211   C205      1.40094      .   S
    C211   C215      1.39179      .   S
    C206   C226      1.39849      .   S
    C204   C224      1.39850      .   S
    C207   C227      1.39785      .   S
    C205   C225      1.39852      .   S
    C214   H54       1.08949      .   S
    C214   C216      1.40162      .   S
    C212   H52       1.08949      .   S
    C212   C218      1.40274  1_455   S
    C213   H53       1.08949      .   S
    C213   C219      1.40178  1_455   S
    C215   H55       1.08950      .   S
    C215   C217      1.40155      .   S
    C227   H63       1.08885      .   S
    C227   C223      1.39671      .   S
    C226   H62       1.08899      .   S
    C226   C222      1.39539      .   S
    C224   H60       1.08897      .   S
    C224   C220      1.39541      .   S
    C225   H61       1.08898      .   S
    C225   C221      1.39587      .   S
    C222   C218      1.40208      .   S
    C222   H58       1.08837      .   S
    C220   C216      1.40184      .   S
    C220   H56       1.08837      .   S
    C223   C219      1.40173      .   S
    C223   H59       1.08790      .   S
    C221   C217      1.40173      .   S
    C221   H57       1.08791      .   S
    H24    C171      1.08794      .   S
    H26    C169      1.08817  1_655   S
    H25    C172      1.08797      .   S
    H27    C170      1.08818  1_655   S
    C167   C171      1.40190      .   S
    C167   C163      1.40248      .   S
    C165   C169      1.40190      .   S
    C165   C161      1.40248      .   S
    C168   C172      1.40194      .   S
    C168   C164      1.40244      .   S
    C166   C170      1.40194      .   S
    C166   C162      1.40243      .   S
    C169   C173      1.39568      .   S
    C171   C175      1.39566      .   S
    C172   C176      1.39569      .   S
    C170   C174      1.39571      .   S
    H20    C161      1.08947      .   S
    H22    C163      1.08946      .   S
    H21    C162      1.08948      .   S
    H23    C164      1.08947      .   S
    H28    C173      1.08894      .   S
    H30    C175      1.08896      .   S
    H29    C174      1.08877      .   S
    H31    C176      1.08899      .   S
    C173   C153      1.39846      .   S
    C175   C155      1.39847      .   S
    C174   C154      1.39852      .   S
    C176   C156      1.39853      .   S
    C161   C157      1.39182      .   S
    C163   C159      1.39168      .   S
    C164   C160      1.39167      .   S
    C162   C158      1.39167      .   S
    C155   C159      1.40082      .   S
    C153   C157      1.40080      .   S
    C154   C158      1.40081      .   S
    C156   C160      1.40082      .   S
    C159   H18       1.08812      .   S
    C157   H16       1.08800      .   S
    C160   H19       1.08804      .   S
    C158   H17       1.08804      .   S
    H66    C233      1.09007      .   S
    H64    C231      1.09008      .   S
    H67    C234      1.09011      .   S
    H65    C232      1.09011      .   S
    C112   C231      1.40196      .   S
    C112   C247      1.40000      .   S
    C229   C233      1.40196      .   S
    C229   C249      1.40001      .   S
    C228   C232      1.40204      .   S
    C228   C248      1.40011      .   S
    C230   C234      1.40203      .   S
    C230   C250      1.40011      .   S
    C233   C237      1.39395      .   S
    C231   C235      1.39394      .   S
    C232   C236      1.39406      .   S
    C234   C238      1.39406      .   S
    H76    C249      1.08739  1_455   S
    H78    C247      1.08717      .   S
    H77    C250      1.08742  1_455   S
    H79    C248      1.08719      .   S
    H10    C147      1.08785      .   S
    H8     C145      1.08786      .   S
    H11    C148      1.08690      .   S
    H9     C146      1.08690      .   S
    C141   C145      1.39721      .   S
    C143   C147      1.39723      .   S
    C144   C148      1.39661      .   S
    C142   C146      1.39662      .   S
