# CIF file generated by openbabel 2.4.90, see http://openbabel.sf.net
data_I
_chemical_name_common ''
_cell_length_a 11.307
_cell_length_b 24.27
_cell_length_c 22.852
_cell_angle_alpha 99.337
_cell_angle_beta 89.988
_cell_angle_gamma 90
_space_group_name_H-M_alt 'P 1'
_space_group_name_Hall 'P 1'
loop_
    _symmetry_equiv_pos_as_xyz
    x,y,z
loop_
    _atom_site_label
    _atom_site_type_symbol
    _atom_site_fract_x
    _atom_site_fract_y
    _atom_site_fract_z
    _atom_site_occupancy
    C0      C    0.62598   0.74661   0.76556   1.000
    C1      C    0.36419   0.14038   0.34534   1.000
    C2      C    0.36389   0.64032   0.34540   1.000
    C3      C    0.86418   0.14038   0.34534   1.000
    C4      C    0.38619   0.38997   0.84561   1.000
    C5      C    0.38624   0.88996   0.84582   1.000
    C6      C    0.88618   0.38997   0.84561   1.000
    C7      C    0.88623   0.88996   0.84582   1.000
    C8      C    0.11378   0.11004   0.15410   1.000
    C9      C    0.11393   0.61003   0.15438   1.000
    C10     C    0.61377   0.11004   0.15413   1.000
    C11     C    0.61392   0.61003   0.15438   1.000
    C12     C    0.12620   0.24667   0.76550   1.000
    C13     C    0.12599   0.74661   0.76556   1.000
    C14     C    0.62619   0.24667   0.76550   1.000
    O15     O    0.21534   0.27069   0.74748   1.000
    O16     O    0.21515   0.77063   0.74752   1.000
    O17     O    0.71533   0.27069   0.74748   1.000
    O18     O    0.71514   0.77063   0.74752   1.000
    C19     C    0.86388   0.64032   0.34546   1.000
    C20     C    0.37675   0.00286   0.73433   1.000
    C21     C    0.37640   0.50289   0.73433   1.000
    C22     C    0.87674   0.00286   0.73433   1.000
    C23     C    0.87639   0.50289   0.73433   1.000
    C24     C    0.37416   0.25342   0.23445   1.000
    C25     C    0.37384   0.75331   0.23446   1.000
    C26     C    0.87415   0.25342   0.23445   1.000
    C27     C    0.87383   0.75331   0.23446   1.000
    C28     C    0.13618   0.35966   0.65455   1.000
    C29     C    0.13595   0.85962   0.65460   1.000
    C30     C    0.63617   0.35966   0.65455   1.000
    C31     C    0.63594   0.85962   0.65460   1.000
    C32     C    0.12372   0.49711   0.26567   1.000
    C33     C    0.12329   0.99714   0.26565   1.000
    C34     C    0.62371   0.49711   0.26560   1.000
    C35     C    0.62328   0.99714   0.26565   1.000
    O36     O    0.19943   0.11925   0.19127   1.000
    O37     O    0.19962   0.61912   0.19149   1.000
    O38     O    0.69942   0.11926   0.19127   1.000
    O39     O    0.69961   0.61913   0.19149   1.000
    O40     O    0.00587   0.11363   0.16929   1.000
    O41     O    0.00604   0.61373   0.16959   1.000
    O42     O    0.50586   0.11363   0.16929   1.000
    O43     O    0.50603   0.61373   0.16959   1.000
    O44     O    0.01831   0.25824   0.75767   1.000
    O45     O    0.01811   0.75819   0.75760   1.000
    O46     O    0.51830   0.25824   0.75767   1.000
    O47     O    0.51809   0.75819   0.75760   1.000
    O48     O    0.44980   0.13159   0.30815   1.000
    O49     O    0.44959   0.63147   0.30831   1.000
    O50     O    0.94979   0.13159   0.30815   1.000
    O51     O    0.94958   0.63147   0.30831   1.000
    O52     O    0.25626   0.13648   0.33021   1.000
    O53     O    0.25600   0.63647   0.33028   1.000
    O54     O    0.75625   0.13648   0.33021   1.000
    O55     O    0.75599   0.63647   0.33028   1.000
    O56     O    0.26868   0.49109   0.74229   1.000
    O57     O    0.26904   0.99101   0.74229   1.000
    O58     O    0.76867   0.49109   0.74229   1.000
    O59     O    0.76903   0.99101   0.74229   1.000
    O60     O    0.46584   0.47917   0.75249   1.000
    O61     O    0.46622   0.97916   0.75248   1.000
    O62     O    0.96583   0.47917   0.75249   1.000
    O63     O    0.96621   0.97916   0.75248   1.000
    O64     O    0.30047   0.38087   0.80851   1.000
    O65     O    0.30055   0.88077   0.80870   1.000
    O66     O    0.80046   0.38087   0.80851   1.000
    O67     O    0.80054   0.88077   0.80870   1.000
    O68     O    0.49407   0.38627   0.83039   1.000
    O69     O    0.49413   0.88635   0.83063   1.000
    O70     O    0.99406   0.38627   0.83039   1.000
    O71     O    0.99412   0.88635   0.83063   1.000
    O72     O    0.48204   0.24185   0.24230   1.000
    O73     O    0.48172   0.74172   0.24232   1.000
    O74     O    0.98203   0.24185   0.24230   1.000
    O75     O    0.98171   0.74172   0.24232   1.000
    O76     O    0.28497   0.22939   0.25247   1.000
    O77     O    0.28468   0.72930   0.25252   1.000
    O78     O    0.78496   0.22939   0.25247   1.000
    O79     O    0.78467   0.72930   0.25252   1.000
    O80     O    0.05046   0.36852   0.69169   1.000
    O81     O    0.05030   0.86843   0.69180   1.000
    O82     O    0.55045   0.36852   0.69169   1.000
    O83     O    0.55029   0.86843   0.69180   1.000
    O84     O    0.24406   0.36352   0.66974   1.000
    O85     O    0.24386   0.86351   0.66978   1.000
    O86     O    0.74405   0.36352   0.66974   1.000
    O87     O    0.74385   0.86351   0.66978   1.000
    O88     O    0.23099   0.00899   0.25769   1.000
    O89     O    0.23144   0.50891   0.25771   1.000
    O90     O    0.73098   0.00899   0.25769   1.000
    O91     O    0.73143   0.50891   0.25771   1.000
    O92     O    0.03380   0.02084   0.24751   1.000
    O93     O    0.03427   0.52082   0.24751   1.000
    O94     O    0.53379   0.02084   0.24751   1.000
    O95     O    0.53426   0.52082   0.24751   1.000
loop_
    _geom_bond_atom_site_label_1
    _geom_bond_atom_site_label_2
    _geom_bond_distance
    _geom_bond_site_symmetry_2
    _ccdc_geom_bond_type
    C8     O40       1.26761      .   S
    C8     O36       1.28382      .   S
    C10    O42       1.26743      .   S
    C10    O38       1.28339      .   S
    C9     O41       1.26758      .   S
    C9     O37       1.28309      .   S
    C11    O43       1.26758      .   S
    C11    O39       1.28308      .   S
    C26    O74       1.27098      .   S
    C26    O78       1.26657      .   S
    C24    O72       1.27099      .   S
    C24    O76       1.26658      .   S
    C27    O75       1.27115      .   S
    C27    O79       1.26645      .   S
    C25    O73       1.27116      .   S
    C25    O77       1.26645      .   S
    O95    C34       1.26594      .   S
    O94    C35       1.26641  1_545   S
    O93    C32       1.26655      .   S
    O92    C33       1.26640  1_545   S
    O88    C33       1.27110  1_545   S
    O90    C35       1.27112  1_545   S
    O89    C32       1.27096      .   S
    O91    C34       1.27069      .   S
    O48    C1        1.28282      .   S
    O50    C3        1.28282      .   S
    O51    C19       1.28307      .   S
    O49    C2        1.28220      .   S
    O52    C1        1.26778      .   S
    O54    C3        1.26779      .   S
    O53    C2        1.26731      .   S
    O55    C19       1.26768      .   S
    C30    O86       1.26765      .   S
    C30    O82       1.28311      .   S
    C28    O84       1.26767      .   S
    C28    O80       1.28311      .   S
    C29    O85       1.26793      .   S
    C29    O81       1.28330      .   S
    C31    O87       1.26792      .   S
    C31    O83       1.28330      .   S
    C22    O59       1.27112  1_545   S
    C22    O63       1.26642  1_545   S
    C20    O57       1.27112  1_545   S
    C20    O61       1.26641  1_545   S
    C21    O56       1.27097      .   S
    C21    O60       1.26651      .   S
    C23    O58       1.27097      .   S
    C23    O62       1.26651      .   S
    O17    C14       1.26612      .   S
    O15    C12       1.26610      .   S
    O18    C0        1.26653      .   S
    O16    C13       1.26654      .   S
    O47    C0        1.27152      .   S
    O45    C13       1.27152      .   S
    O46    C14       1.27105      .   S
    O44    C12       1.27104      .   S
    O64    C4        1.28312      .   S
    O66    C6        1.28313      .   S
    O65    C5        1.28334      .   S
    O67    C7        1.28333      .   S
    O68    C4        1.26756      .   S
    O70    C6        1.26755      .   S
    O69    C5        1.26743      .   S
    O71    C7        1.26744      .   S
