# CIF file generated by openbabel 2.4.90, see http://openbabel.sf.net
data_I
_chemical_name_common ''
_cell_length_a 11.307
_cell_length_b 24.27
_cell_length_c 22.852
_cell_angle_alpha 99.337
_cell_angle_beta 89.988
_cell_angle_gamma 90
_space_group_name_H-M_alt 'P 1'
_space_group_name_Hall 'P 1'
loop_
    _symmetry_equiv_pos_as_xyz
    x,y,z
loop_
    _atom_site_label
    _atom_site_type_symbol
    _atom_site_fract_x
    _atom_site_fract_y
    _atom_site_fract_z
    _atom_site_occupancy
    Zr0     Zr   0.13280   0.43247   0.77741   1.000
    Zr1     Zr   0.13299   0.93241   0.77745   1.000
    Zr2     Zr   0.63279   0.43247   0.77741   1.000
    Zr3     Zr   0.63298   0.93241   0.77745   1.000
    Zr4     Zr   0.38265   0.31706   0.72265   1.000
    Zr5     Zr   0.38243   0.81703   0.72272   1.000
    Zr6     Zr   0.88264   0.31706   0.72265   1.000
    Zr7     Zr   0.88242   0.81703   0.72272   1.000
    Zr8     Zr   0.36705   0.06760   0.22250   1.000
    Zr9     Zr   0.36732   0.56752   0.22258   1.000
    Zr10    Zr   0.86704   0.06760   0.22250   1.000
    Zr11    Zr   0.86731   0.56752   0.22258   1.000
    Zr12    Zr   0.11772   0.18299   0.27728   1.000
    Zr13    Zr   0.11742   0.68291   0.27735   1.000
    Zr14    Zr   0.61771   0.18299   0.27728   1.000
    Zr15    Zr   0.61740   0.68291   0.27735   1.000
    N16     N    0.45342   0.29767   0.39135   1.000
    O17     O    0.60168   0.23686   0.34624   1.000
    N18     N    0.70244   0.95258   0.10880   1.000
    O19     O    0.85073   0.01355   0.15376   1.000
    N20     N    0.79763   0.04739   0.89117   1.000
    O21     O    0.64931   0.98644   0.84621   1.000
    N22     N    0.20291   0.45258   0.10866   1.000
    O23     O    0.35109   0.51357   0.15363   1.000
    N24     N    0.04674   0.70233   0.60865   1.000
    O25     O    0.89847   0.76314   0.65375   1.000
    N26     N    0.54674   0.70233   0.60865   1.000
    O27     O    0.39848   0.76314   0.65375   1.000
    N28     N    0.95342   0.29766   0.39135   1.000
    O29     O    0.10169   0.23686   0.34624   1.000
    N30     N    0.45314   0.79768   0.39093   1.000
    O31     O    0.60140   0.73686   0.34630   1.000
    N32     N    0.70290   0.45258   0.10866   1.000
    O33     O    0.85108   0.51357   0.15363   1.000
    N34     N    0.29722   0.54742   0.89132   1.000
    O35     O    0.14901   0.48644   0.84636   1.000
    N36     N    0.04697   0.20231   0.60860   1.000
    O37     O    0.89868   0.26313   0.65366   1.000
    N38     N    0.79721   0.54742   0.89132   1.000
    O39     O    0.64900   0.48644   0.84636   1.000
    N40     N    0.54697   0.20231   0.60860   1.000
    O41     O    0.39869   0.26313   0.65366   1.000
    N42     N    0.29764   0.04739   0.89117   1.000
    O43     O    0.14932   0.98644   0.84621   1.000
    N44     N    0.20245   0.95258   0.10880   1.000
    O45     O    0.35074   0.01355   0.15373   1.000
    N46     N    0.95314   0.79768   0.39093   1.000
    O47     O    0.10141   0.73686   0.34630   1.000
    C48     C    0.87066   0.99101   0.74303   1.000
    O49     O    0.88851   0.02619   0.71875   1.000
    O50     O    0.96013   0.97340   0.75400   1.000
    O51     O    0.78583   0.97636   0.75145   1.000
    C52     C    0.37067   0.99101   0.74303   1.000
    O53     O    0.46013   0.97340   0.75400   1.000
    O54     O    0.28584   0.97636   0.75145   1.000
    O55     O    0.38852   0.02619   0.71874   1.000
    C56     C    0.64336   0.86385   0.67206   1.000
    O57     O    0.62222   0.85383   0.62382   1.000
    O58     O    0.61749   0.88213   0.70334   1.000
    O59     O    0.55486   0.85329   0.68966   1.000
    O60     O    0.72825   0.85206   0.68415   1.000
    C61     C    0.61974   0.75848   0.75689   1.000
    O62     O    0.70926   0.77615   0.74601   1.000
    O63     O    0.53500   0.77304   0.74853   1.000
    O64     O    0.63790   0.72328   0.78108   1.000
    C65     C    0.14337   0.86385   0.67206   1.000
    O66     O    0.12223   0.85383   0.62382   1.000
    O67     O    0.11751   0.88213   0.70334   1.000
    O68     O    0.05486   0.85329   0.68966   1.000
    O69     O    0.22826   0.85206   0.68415   1.000
    C70     C    0.11975   0.75848   0.75689   1.000
    O71     O    0.13791   0.72328   0.78108   1.000
    O72     O    0.03501   0.77304   0.74853   1.000
    O73     O    0.20927   0.77615   0.74601   1.000
    C74     C    0.39364   0.88570   0.82838   1.000
    O75     O    0.30521   0.89614   0.81073   1.000
    O76     O    0.36757   0.86730   0.79705   1.000
    O77     O    0.47860   0.89754   0.81621   1.000
    O78     O    0.37239   0.89584   0.87660   1.000
    C79     C    0.89363   0.88570   0.82838   1.000
    O80     O    0.80520   0.89614   0.81073   1.000
    O81     O    0.86756   0.86730   0.79705   1.000
    O82     O    0.97859   0.89754   0.81621   1.000
    O83     O    0.87238   0.89584   0.87660   1.000
    C84     C    0.35649   0.63608   0.32800   1.000
    O85     O    0.37761   0.64612   0.37623   1.000
    O86     O    0.27160   0.64789   0.31591   1.000
    O87     O    0.38247   0.61779   0.29672   1.000
    O88     O    0.44499   0.64664   0.31041   1.000
    C89     C    0.10653   0.61429   0.17182   1.000
    O90     O    0.12770   0.60417   0.12359   1.000
    O91     O    0.19500   0.60381   0.18943   1.000
    O92     O    0.13253   0.63266   0.20312   1.000
    O93     O    0.02160   0.60246   0.18395   1.000
    C94     C    0.88007   0.74144   0.24310   1.000
    O95     O    0.86187   0.77665   0.21894   1.000
    O96     O    0.96482   0.72688   0.25147   1.000
    O97     O    0.79055   0.72377   0.25402   1.000
    C98     C    0.60652   0.61429   0.17182   1.000
    O99     O    0.62769   0.60417   0.12359   1.000
    O100    O    0.52160   0.60246   0.18395   1.000
    O101    O    0.69499   0.60381   0.18943   1.000
    O102    O    0.63251   0.63266   0.20312   1.000
    C103    C    0.38008   0.74144   0.24310   1.000
    O104    O    0.29056   0.72377   0.25402   1.000
    O105    O    0.36188   0.77665   0.21893   1.000
    O106    O    0.46482   0.72688   0.25147   1.000
    C107    C    0.62980   0.50894   0.25694   1.000
    O108    O    0.61194   0.47378   0.28122   1.000
    O109    O    0.71459   0.52358   0.24854   1.000
    O110    O    0.54030   0.52656   0.24599   1.000
    C111    C    0.85648   0.63608   0.32802   1.000
    O112    O    0.88246   0.61779   0.29673   1.000
    O113    O    0.94499   0.64664   0.31042   1.000
    O114    O    0.77159   0.64789   0.31592   1.000
    O115    O    0.87760   0.64612   0.37625   1.000
    C116    C    0.12981   0.50894   0.25696   1.000
    O117    O    0.11195   0.47378   0.28125   1.000
    O118    O    0.04030   0.52656   0.24600   1.000
    O119    O    0.21460   0.52358   0.24855   1.000
    C120    C    0.35675   0.13615   0.32790   1.000
    O121    O    0.37791   0.14616   0.37614   1.000
    O122    O    0.27187   0.14794   0.31582   1.000
    O123    O    0.38259   0.11787   0.29661   1.000
    O124    O    0.44525   0.14672   0.31031   1.000
    C125    C    0.88038   0.24155   0.24307   1.000
    O126    O    0.86223   0.27675   0.21890   1.000
    O127    O    0.79086   0.22387   0.25397   1.000
    O128    O    0.96513   0.22699   0.25143   1.000
    C129    C    0.62935   0.00899   0.25695   1.000
    O130    O    0.61152   0.97381   0.28117   1.000
    O131    O    0.53989   0.02660   0.24598   1.000
    O132    O    0.71418   0.02364   0.24852   1.000
    C133    C    0.60635   0.11431   0.17156   1.000
    O134    O    0.69479   0.10387   0.18922   1.000
    O135    O    0.63246   0.13272   0.20292   1.000
    O136    O    0.52140   0.10246   0.18373   1.000
    O137    O    0.62764   0.10415   0.12335   1.000
    C138    C    0.38039   0.24155   0.24307   1.000
    O139    O    0.29087   0.22387   0.25397   1.000
    O140    O    0.36224   0.27675   0.21890   1.000
    O141    O    0.46513   0.22699   0.25143   1.000
    C142    C    0.10636   0.11431   0.17155   1.000
    O143    O    0.12765   0.10415   0.12334   1.000
    O144    O    0.02141   0.10246   0.18372   1.000
    O145    O    0.13247   0.13272   0.20291   1.000
    O146    O    0.19480   0.10387   0.18922   1.000
    C147    C    0.12936   0.00899   0.25695   1.000
    O148    O    0.21419   0.02364   0.24852   1.000
    O149    O    0.11153   0.97381   0.28117   1.000
    O150    O    0.03989   0.02660   0.24598   1.000
    C151    C    0.85674   0.13615   0.32790   1.000
    O152    O    0.88258   0.11787   0.29661   1.000
    O153    O    0.94525   0.14672   0.31031   1.000
    O154    O    0.87790   0.14616   0.37614   1.000
    O155    O    0.77186   0.14794   0.31582   1.000
    C156    C    0.11995   0.25853   0.75688   1.000
    O157    O    0.20947   0.27621   0.74597   1.000
    O158    O    0.13817   0.22333   0.78104   1.000
    O159    O    0.03521   0.27309   0.74852   1.000
    C160    C    0.64356   0.36390   0.67199   1.000
    O161    O    0.72845   0.35210   0.68409   1.000
    O162    O    0.62246   0.35387   0.62376   1.000
    O163    O    0.61759   0.38220   0.70327   1.000
    O164    O    0.55505   0.35335   0.68958   1.000
    C165    C    0.39358   0.38570   0.82817   1.000
    O166    O    0.47850   0.39754   0.81603   1.000
    O167    O    0.30511   0.39619   0.81056   1.000
    O168    O    0.36757   0.36733   0.79687   1.000
    O169    O    0.37242   0.39584   0.87639   1.000
    C170    C    0.89356   0.38570   0.82817   1.000
    O171    O    0.80509   0.39619   0.81056   1.000
    O172    O    0.86756   0.36733   0.79687   1.000
    O173    O    0.97850   0.39754   0.81603   1.000
    O174    O    0.87241   0.39584   0.87639   1.000
    C175    C    0.87030   0.49105   0.74304   1.000
    O176    O    0.95981   0.47344   0.75399   1.000
    O177    O    0.88817   0.52622   0.71874   1.000
    O178    O    0.78551   0.47642   0.75144   1.000
    C179    C    0.61994   0.25854   0.75688   1.000
    O180    O    0.53521   0.27309   0.74852   1.000
    O181    O    0.63816   0.22333   0.78104   1.000
    O182    O    0.70946   0.27621   0.74597   1.000
    C183    C    0.37031   0.49105   0.74304   1.000
    O184    O    0.28552   0.47642   0.75144   1.000
    O185    O    0.38818   0.52622   0.71874   1.000
    O186    O    0.45981   0.47344   0.75399   1.000
    C187    C    0.14357   0.36390   0.67199   1.000
    O188    O    0.22846   0.35210   0.68409   1.000
    O189    O    0.12247   0.35387   0.62376   1.000
    O190    O    0.11760   0.38220   0.70327   1.000
    O191    O    0.05506   0.35335   0.68958   1.000
loop_
    _geom_bond_atom_site_label_1
    _geom_bond_atom_site_label_2
    _geom_bond_distance
    _geom_bond_site_symmetry_2
    _ccdc_geom_bond_type
    N16    O17       2.35713      .   S
    Zr14   O17       1.88603      .   S
    N18    O19       2.35875  1_565   S
    Zr10   O19       1.88524      .   S
    N20    O21       2.35882  1_545   S
    Zr3    O21       1.88532      .   S
    N22    O23       2.35834      .   S
    Zr9    O23       1.88710      .   S
    N24    O25       2.35731  1_455   S
    Zr7    O25       1.88641      .   S
    N26    O27       2.35721      .   S
    Zr5    O27       1.88640      .   S
    N28    O29       2.35722  1_655   S
    Zr12   O29       1.88604      .   S
    N30    O31       2.35374      .   S
    Zr15   O31       1.88690      .   S
    N32    O33       2.35834      .   S
    Zr11   O33       1.88710      .   S
    N34    O35       2.35828      .   S
    Zr0    O35       1.88752      .   S
    N36    O37       2.35729  1_455   S
    Zr6    O37       1.88731      .   S
    N38    O39       2.35828      .   S
    Zr2    O39       1.88752      .   S
    N40    O41       2.35720      .   S
    Zr4    O41       1.88730      .   S
    N42    O43       2.35881  1_545   S
    Zr1    O43       1.88532      .   S
    N44    O45       2.35854  1_565   S
    Zr8    O45       1.88574      .   S
    N46    O47       2.35384  1_655   S
    Zr13   O47       1.88692      .   S
    C48    O49       1.10968  1_565   S
    N36    O49       5.59520  1_455   S
    C48    O50       1.14185      .   S
    Zr1    O50       2.29575  1_455   S
    C48    O51       1.05143      .   S
    Zr3    O51       2.16407      .   S
    C52    O53       1.14179      .   S
    Zr3    O53       2.29558      .   S
    C52    O54       1.05143      .   S
    Zr1    O54       2.16407      .   S
    C52    O55       1.10984  1_565   S
    N40    O55       5.59500      .   S
    C56    O57       1.11561      .   S
    N30    O57       5.61123      .   S
    C56    O58       0.83092      .   S
    Zr3    O58       1.92793      .   S
    C56    O59       1.12341      .   S
    Zr5    O59       2.31548      .   S
    C56    O60       1.05135      .   S
    Zr7    O60       2.18680      .   S
    C61    O62       1.14239      .   S
    Zr7    O62       2.29601      .   S
    C61    O63       1.04955      .   S
    Zr5    O63       2.16059      .   S
    C61    O64       1.10951      .   S
    N38    O64       5.59448      .   S
    C65    O66       1.11561      .   S
    N46    O66       5.61127  1_655   S
    C65    O67       0.83093      .   S
    Zr1    O67       1.92793      .   S
    C65    O68       1.12347      .   S
    Zr7    O68       2.31564  1_655   S
    C65    O69       1.05135      .   S
    Zr5    O69       2.18681      .   S
    C70    O71       1.10948      .   S
    N34    O71       5.59450      .   S
    C70    O72       1.04961      .   S
    Zr7    O72       2.16075  1_655   S
    C70    O73       1.14239      .   S
    Zr5    O73       2.29601      .   S
    C74    O75       1.12263      .   S
    Zr1    O75       2.31574      .   S
    C74    O76       0.83393      .   S
    Zr5    O76       1.93110      .   S
    C74    O77       1.05287      .   S
    Zr3    O77       2.18868      .   S
    C74    O78       1.11549      .   S
    N44    O78       5.60081  1_554   S
    C79    O80       1.12263      .   S
    Zr3    O80       2.31575      .   S
    C79    O81       0.83393      .   S
    Zr7    O81       1.93109      .   S
    C79    O82       1.05293      .   S
    Zr1    O82       2.18882  1_455   S
    C79    O83       1.11549      .   S
    N18    O83       5.60081  1_554   S
    C84    O85       1.11552      .   S
    N26    O85       5.60178      .   S
    C84    O86       1.05146      .   S
    Zr13   O86       2.18676      .   S
    C84    O87       0.83140      .   S
    Zr9    O87       1.92814      .   S
    C84    O88       1.12323      .   S
    Zr15   O88       2.31550      .   S
    C89    O90       1.11545      .   S
    N34    O90       5.60068  1_556   S
    C89    O91       1.12283      .   S
    Zr9    O91       2.31585      .   S
    C89    O92       0.83262      .   S
    Zr13   O92       1.92947      .   S
    C89    O93       1.05225      .   S
    Zr11   O93       2.18724  1_655   S
    C94    O95       1.10931      .   S
    N18    O95       5.59500      .   S
    C94    O96       1.04963      .   S
    Zr13   O96       2.16120  1_455   S
    C94    O97       1.14244      .   S
    Zr15   O97       2.29605      .   S
    C98    O99       1.11546      .   S
    N38    O99       5.60068  1_556   S
    C98    O100      1.05219      .   S
    Zr9    O100      2.18709      .   S
    C98    O101      1.12283      .   S
    Zr11   O101      2.31584      .   S
    C98    O102      0.83262      .   S
    Zr15   O102      1.92948      .   S
    C103   O104      1.14244      .   S
    Zr13   O104      2.29605      .   S
    C103   O105      1.10938      .   S
    N44    O105      5.59494      .   S
    C103   O106      1.04957      .   S
    Zr15   O106      2.16104      .   S
    C107   O108      1.10942      .   S
    N16    O108      5.59497      .   S
    C107   O109      1.05074      .   S
    Zr11   O109      2.16248      .   S
    C107   O110      1.14207      .   S
    Zr9    O110      2.29625      .   S
    C111   O112      0.83158      .   S
    Zr11   O112      1.92832      .   S
    C111   O113      1.12338      .   S
    Zr13   O113      2.31575  1_455   S
    C111   O114      1.05153      .   S
    Zr15   O114      2.18687      .   S
    C111   O115      1.11545      .   S
    N24    O115      5.60148  1_455   S
    C116   O117      1.10945      .   S
    N28    O117      5.59467  1_655   S
    C116   O118      1.14220      .   S
    Zr11   O118      2.29650  1_655   S
    C116   O119      1.05081      .   S
    Zr9    O119      2.16259      .   S
    C120   O121      1.11562      .   S
    N40    O121      5.60232      .   S
    C120   O122      1.05117      .   S
    Zr12   O122      2.18660      .   S
    C120   O123      0.83088      .   S
    Zr8    O123      1.92809      .   S
    C120   O124      1.12342      .   S
    Zr14   O124      2.31558      .   S
    C125   O126      1.10916      .   S
    N32    O126      5.59389      .   S
    C125   O127      1.14253      .   S
    Zr14   O127      2.29609      .   S
    C125   O128      1.04960      .   S
    Zr12   O128      2.16124  1_455   S
    C129   O130      1.10880  1_545   S
    N30    O130      5.59005      .   S
    C129   O131      1.14181      .   S
    Zr8    O131      2.29571      .   S
    C129   O132      1.05153      .   S
    Zr10   O132      2.16434      .   S
    C133   O134      1.12270      .   S
    Zr10   O134      2.31608      .   S
    C133   O135      0.83450      .   S
    Zr14   O135      1.93170      .   S
    C133   O136      1.05278      .   S
    Zr8    O136      2.18847      .   S
    C133   O137      1.11544      .   S
    N20    O137      5.60076  1_556   S
    C138   O139      1.14253      .   S
    Zr12   O139      2.29609      .   S
    C138   O140      1.10916      .   S
    N22    O140      5.59390      .   S
    C138   O141      1.04954      .   S
    Zr14   O141      2.16108      .   S
    C142   O143      1.11541      .   S
    N42    O143      5.60057  1_556   S
    C142   O144      1.05287      .   S
    Zr10   O144      2.18866  1_655   S
    C142   O145      0.83459      .   S
    Zr12   O145      1.93178      .   S
    C142   O146      1.12275      .   S
    Zr8    O146      2.31613      .   S
    C147   O148      1.05153      .   S
    Zr8    O148      2.16434      .   S
    C147   O149      1.10879  1_545   S
    N46    O149      5.59011  1_655   S
    C147   O150      1.14187      .   S
    Zr10   O150      2.29586  1_655   S
    C151   O152      0.83088      .   S
    Zr10   O152      1.92809      .   S
    C151   O153      1.12348      .   S
    Zr12   O153      2.31573  1_455   S
    C151   O154      1.11563      .   S
    N36    O154      5.60236  1_455   S
    C151   O155      1.05118      .   S
    Zr14   O155      2.18661      .   S
    C156   O157      1.14249      .   S
    Zr4    O157      2.29623      .   S
    C156   O158      1.10931      .   S
    N42    O158      5.59518      .   S
    C156   O159      1.04946      .   S
    Zr6    O159      2.16094  1_655   S
    C160   O161      1.05155      .   S
    Zr6    O161      2.18687      .   S
    C160   O162      1.11548      .   S
    N16    O162      5.60122      .   S
    C160   O163      0.83141      .   S
    Zr2    O163      1.92823      .   S
    C160   O164      1.12331      .   S
    Zr4    O164      2.31554      .   S
    C165   O166      1.05225      .   S
    Zr2    O166      2.18712      .   S
    C165   O167      1.12278      .   S
    Zr0    O167      2.31574      .   S
    C165   O168      0.83264      .   S
    Zr4    O168      1.92951      .   S
    C165   O169      1.11539      .   S
    N22    O169      5.60054  1_554   S
    C170   O171      1.12279      .   S
    Zr2    O171      2.31574      .   S
    C170   O172      0.83264      .   S
    Zr6    O172      1.92952      .   S
    C170   O173      1.05230      .   S
    Zr0    O173      2.18728  1_455   S
    C170   O174      1.11538      .   S
    N32    O174      5.60054  1_554   S
    C175   O176      1.14218      .   S
    Zr0    O176      2.29646  1_455   S
    C175   O177      1.10970      .   S
    N24    O177      5.59457  1_455   S
    C175   O178      1.05078      .   S
    Zr2    O178      2.16255      .   S
    C179   O180      1.04940      .   S
    Zr4    O180      2.16078      .   S
    C179   O181      1.10931      .   S
    N20    O181      5.59519      .   S
    C179   O182      1.14249      .   S
    Zr6    O182      2.29623      .   S
    C183   O184      1.05078      .   S
    Zr0    O184      2.16254      .   S
    C183   O185      1.10968      .   S
    N26    O185      5.59456      .   S
    C183   O186      1.14212      .   S
    Zr2    O186      2.29629      .   S
    C187   O188      1.05156      .   S
    Zr4    O188      2.18688      .   S
    C187   O189      1.11548      .   S
    N28    O189      5.60126  1_655   S
    C187   O190      0.83141      .   S
    Zr0    O190      1.92823      .   S
    C187   O191      1.12337      .   S
    Zr6    O191      2.31570  1_655   S
