# CIF file generated by openbabel 2.4.90, see http://openbabel.sf.net
data_I
_chemical_name_common ''
_cell_length_a 11.307
_cell_length_b 24.27
_cell_length_c 22.852
_cell_angle_alpha 99.337
_cell_angle_beta 89.988
_cell_angle_gamma 90
_space_group_name_H-M_alt 'P 1'
_space_group_name_Hall 'P 1'
loop_
    _symmetry_equiv_pos_as_xyz
    x,y,z
loop_
    _atom_site_label
    _atom_site_type_symbol
    _atom_site_fract_x
    _atom_site_fract_y
    _atom_site_fract_z
    _atom_site_occupancy
    Zr0     Zr   0.13280   0.43247   0.77741   1.000
    Zr1     Zr   0.13299   0.93241   0.77745   1.000
    Zr2     Zr   0.63279   0.43247   0.77741   1.000
    Zr3     Zr   0.63298   0.93241   0.77745   1.000
    Zr4     Zr   0.38265   0.31706   0.72265   1.000
    Zr5     Zr   0.38243   0.81703   0.72272   1.000
    Zr6     Zr   0.88264   0.31706   0.72265   1.000
    Zr7     Zr   0.88242   0.81703   0.72272   1.000
    Zr8     Zr   0.36705   0.06760   0.22250   1.000
    Zr9     Zr   0.36732   0.56752   0.22258   1.000
    Zr10    Zr   0.86704   0.06760   0.22250   1.000
    Zr11    Zr   0.86731   0.56752   0.22258   1.000
    Zr12    Zr   0.11772   0.18299   0.27728   1.000
    Zr13    Zr   0.11742   0.68291   0.27735   1.000
    Zr14    Zr   0.61771   0.18299   0.27728   1.000
    Zr15    Zr   0.61740   0.68291   0.27735   1.000
    Zr16    Zr   0.11378   0.11004   0.15410   1.000
    Zr17    Zr   0.11393   0.61003   0.15438   1.000
    Zr18    Zr   0.61377   0.11004   0.15413   1.000
    Zr19    Zr   0.61392   0.61003   0.15438   1.000
    Zr20    Zr   0.12620   0.24667   0.76550   1.000
    Zr21    Zr   0.12599   0.74661   0.76556   1.000
    Zr22    Zr   0.62619   0.24667   0.76550   1.000
    Zr23    Zr   0.62598   0.74661   0.76556   1.000
    Zr24    Zr   0.36419   0.14038   0.34534   1.000
    Zr25    Zr   0.36389   0.64032   0.34540   1.000
    Zr26    Zr   0.86418   0.14038   0.34534   1.000
    Zr27    Zr   0.86388   0.64032   0.34546   1.000
    Zr28    Zr   0.37675   0.00286   0.73433   1.000
    Zr29    Zr   0.37640   0.50289   0.73433   1.000
    Zr30    Zr   0.87674   0.00286   0.73433   1.000
    Zr31    Zr   0.87639   0.50289   0.73433   1.000
    Zr32    Zr   0.38619   0.38997   0.84561   1.000
    Zr33    Zr   0.38624   0.88996   0.84582   1.000
    Zr34    Zr   0.88618   0.38997   0.84561   1.000
    Zr35    Zr   0.88623   0.88996   0.84582   1.000
    Zr36    Zr   0.37416   0.25342   0.23445   1.000
    Zr37    Zr   0.37384   0.75331   0.23446   1.000
    Zr38    Zr   0.87415   0.25342   0.23445   1.000
    Zr39    Zr   0.87383   0.75331   0.23446   1.000
    Zr40    Zr   0.13618   0.35966   0.65455   1.000
    Zr41    Zr   0.13595   0.85962   0.65460   1.000
    Zr42    Zr   0.63617   0.35966   0.65455   1.000
    Zr43    Zr   0.63594   0.85962   0.65460   1.000
    Zr44    Zr   0.12372   0.49711   0.26567   1.000
    Zr45    Zr   0.12329   0.99714   0.26565   1.000
    Zr46    Zr   0.62371   0.49711   0.26560   1.000
    Zr47    Zr   0.62328   0.99714   0.26565   1.000
    Zr48    Zr   0.19943   0.11925   0.19127   1.000
    Zr49    Zr   0.19962   0.61912   0.19149   1.000
    Zr50    Zr   0.69942   0.11926   0.19127   1.000
    Zr51    Zr   0.69961   0.61913   0.19149   1.000
    Zr52    Zr   0.00587   0.11363   0.16929   1.000
    Zr53    Zr   0.00604   0.61373   0.16959   1.000
    Zr54    Zr   0.50586   0.11363   0.16929   1.000
    Zr55    Zr   0.50603   0.61373   0.16959   1.000
    Zr56    Zr   0.01831   0.25824   0.75767   1.000
    Zr57    Zr   0.01811   0.75819   0.75760   1.000
    Zr58    Zr   0.51830   0.25824   0.75767   1.000
    Zr59    Zr   0.51809   0.75819   0.75760   1.000
    Zr60    Zr   0.21534   0.27069   0.74748   1.000
    Zr61    Zr   0.21515   0.77063   0.74752   1.000
    Zr62    Zr   0.71533   0.27069   0.74748   1.000
    Zr63    Zr   0.71514   0.77063   0.74752   1.000
    Zr64    Zr   0.44980   0.13159   0.30815   1.000
    Zr65    Zr   0.44959   0.63147   0.30831   1.000
    Zr66    Zr   0.94979   0.13159   0.30815   1.000
    Zr67    Zr   0.94958   0.63147   0.30831   1.000
    Zr68    Zr   0.25626   0.13648   0.33021   1.000
    Zr69    Zr   0.25600   0.63647   0.33028   1.000
    Zr70    Zr   0.75625   0.13648   0.33021   1.000
    Zr71    Zr   0.75599   0.63647   0.33028   1.000
    Zr72    Zr   0.26868   0.49109   0.74229   1.000
    Zr73    Zr   0.26904   0.99101   0.74229   1.000
    Zr74    Zr   0.76867   0.49109   0.74229   1.000
    Zr75    Zr   0.76903   0.99101   0.74229   1.000
    Zr76    Zr   0.46584   0.47917   0.75249   1.000
    Zr77    Zr   0.46622   0.97916   0.75248   1.000
    Zr78    Zr   0.96583   0.47917   0.75249   1.000
    Zr79    Zr   0.96621   0.97916   0.75248   1.000
    Zr80    Zr   0.30047   0.38087   0.80851   1.000
    Zr81    Zr   0.30055   0.88077   0.80870   1.000
    Zr82    Zr   0.80046   0.38087   0.80851   1.000
    Zr83    Zr   0.80054   0.88077   0.80870   1.000
    Zr84    Zr   0.49407   0.38627   0.83039   1.000
    Zr85    Zr   0.49413   0.88635   0.83063   1.000
    Zr86    Zr   0.99406   0.38627   0.83039   1.000
    Zr87    Zr   0.99412   0.88635   0.83063   1.000
    Zr88    Zr   0.48204   0.24185   0.24230   1.000
    Zr89    Zr   0.48172   0.74172   0.24232   1.000
    Zr90    Zr   0.98203   0.24185   0.24230   1.000
    Zr91    Zr   0.98171   0.74172   0.24232   1.000
    Zr92    Zr   0.28497   0.22939   0.25247   1.000
    Zr93    Zr   0.28468   0.72930   0.25252   1.000
    Zr94    Zr   0.78496   0.22939   0.25247   1.000
    Zr95    Zr   0.78467   0.72930   0.25252   1.000
    Zr96    Zr   0.05046   0.36852   0.69169   1.000
    Zr97    Zr   0.05030   0.86843   0.69180   1.000
    Zr98    Zr   0.55045   0.36852   0.69169   1.000
    Zr99    Zr   0.55029   0.86843   0.69180   1.000
    Zr100   Zr   0.24406   0.36352   0.66974   1.000
    Zr101   Zr   0.24386   0.86351   0.66978   1.000
    Zr102   Zr   0.74405   0.36352   0.66974   1.000
    Zr103   Zr   0.74385   0.86351   0.66978   1.000
    Zr104   Zr   0.23099   0.00899   0.25769   1.000
    Zr105   Zr   0.23144   0.50891   0.25771   1.000
    Zr106   Zr   0.73098   0.00899   0.25769   1.000
    Zr107   Zr   0.73143   0.50891   0.25771   1.000
    Zr108   Zr   0.03380   0.02084   0.24751   1.000
    Zr109   Zr   0.03427   0.52082   0.24751   1.000
    Zr110   Zr   0.53379   0.02084   0.24751   1.000
    Zr111   Zr   0.53426   0.52082   0.24751   1.000
    O112    O    0.05982   0.11183   0.16170   1.000
    O113    O    0.15661   0.11465   0.17268   1.000
    O114    O    0.55981   0.11183   0.16171   1.000
    O115    O    0.65660   0.11465   0.17270   1.000
    O116    O    0.05999   0.61188   0.16198   1.000
    O117    O    0.15678   0.61458   0.17293   1.000
    O118    O    0.55997   0.61188   0.16198   1.000
    O119    O    0.65677   0.61458   0.17293   1.000
    O120    O    0.45042   0.04422   0.23500   1.000
    O121    O    0.29902   0.03830   0.24009   1.000
    O122    O    0.95042   0.04422   0.23500   1.000
    O123    O    0.79901   0.03830   0.24009   1.000
    O124    O    0.45079   0.54417   0.23505   1.000
    O125    O    0.29938   0.53821   0.24014   1.000
    O126    O    0.95079   0.54417   0.23505   1.000
    O127    O    0.79937   0.53821   0.24014   1.000
    O128    O    0.92809   0.24763   0.23837   1.000
    O129    O    0.82955   0.24140   0.24346   1.000
    O130    O    0.42810   0.24764   0.23837   1.000
    O131    O    0.32956   0.24140   0.24346   1.000
    O132    O    0.92777   0.74751   0.23839   1.000
    O133    O    0.82925   0.74130   0.24349   1.000
    O134    O    0.42778   0.74751   0.23839   1.000
    O135    O    0.32926   0.74130   0.24349   1.000
    O136    O    0.54987   0.21242   0.25979   1.000
    O137    O    0.04987   0.21242   0.25979   1.000
    O138    O    0.54956   0.71231   0.25983   1.000
    O139    O    0.04956   0.71231   0.25983   1.000
    O140    O    0.57899   0.50896   0.25656   1.000
    O141    O    0.57853   0.00899   0.25658   1.000
    O142    O    0.07900   0.50896   0.25659   1.000
    O143    O    0.07855   0.00899   0.25658   1.000
    O144    O    0.20134   0.20619   0.26488   1.000
    O145    O    0.70133   0.20619   0.26488   1.000
    O146    O    0.20105   0.70611   0.26493   1.000
    O147    O    0.70104   0.70611   0.26493   1.000
    O148    O    0.17714   0.00307   0.26167   1.000
    O149    O    0.67713   0.00307   0.26167   1.000
    O150    O    0.17758   0.50301   0.26169   1.000
    O151    O    0.67757   0.50301   0.26165   1.000
    O152    O    0.40700   0.13598   0.32674   1.000
    O153    O    0.90698   0.13598   0.32674   1.000
    O154    O    0.90673   0.63589   0.32688   1.000
    O155    O    0.40674   0.63589   0.32685   1.000
    O156    O    0.31023   0.13843   0.33777   1.000
    O157    O    0.81022   0.13843   0.33777   1.000
    O158    O    0.30994   0.63839   0.33784   1.000
    O159    O    0.80993   0.63839   0.33787   1.000
    O160    O    0.69011   0.36159   0.66214   1.000
    O161    O    0.59331   0.36409   0.67312   1.000
    O162    O    0.19012   0.36159   0.66214   1.000
    O163    O    0.09332   0.36409   0.67312   1.000
    O164    O    0.18990   0.86156   0.66219   1.000
    O165    O    0.09312   0.86402   0.67320   1.000
    O166    O    0.68989   0.86156   0.66219   1.000
    O167    O    0.59311   0.86402   0.67320   1.000
    O168    O    0.29899   0.29388   0.73506   1.000
    O169    O    0.45047   0.28765   0.74016   1.000
    O170    O    0.79898   0.29388   0.73506   1.000
    O171    O    0.95047   0.28765   0.74016   1.000
    O172    O    0.29879   0.79383   0.73512   1.000
    O173    O    0.45026   0.78761   0.74016   1.000
    O174    O    0.79878   0.79383   0.73512   1.000
    O175    O    0.95026   0.78761   0.74016   1.000
    O176    O    0.82288   0.99694   0.73831   1.000
    O177    O    0.92147   0.99101   0.74341   1.000
    O178    O    0.32289   0.99694   0.73831   1.000
    O179    O    0.42148   0.99101   0.74341   1.000
    O180    O    0.32254   0.49699   0.73831   1.000
    O181    O    0.42112   0.49103   0.74341   1.000
    O182    O    0.82253   0.49699   0.73831   1.000
    O183    O    0.92111   0.49103   0.74341   1.000
    O184    O    0.70100   0.96171   0.75987   1.000
    O185    O    0.20074   0.46178   0.75985   1.000
    O186    O    0.20101   0.96171   0.75987   1.000
    O187    O    0.70073   0.46178   0.75985   1.000
    O188    O    0.67076   0.25868   0.75649   1.000
    O189    O    0.17077   0.25868   0.75649   1.000
    O190    O    0.67056   0.75862   0.75654   1.000
    O191    O    0.17057   0.75862   0.75654   1.000
    O192    O    0.04960   0.95578   0.76497   1.000
    O193    O    0.54960   0.95578   0.76497   1.000
    O194    O    0.04931   0.45582   0.76495   1.000
    O195    O    0.54931   0.45582   0.76495   1.000
    O196    O    0.57204   0.75240   0.76158   1.000
    O197    O    0.07205   0.75240   0.76158   1.000
    O198    O    0.57225   0.25246   0.76158   1.000
    O199    O    0.07226   0.25246   0.76158   1.000
    O200    O    0.34333   0.38542   0.82706   1.000
    O201    O    0.84332   0.38542   0.82706   1.000
    O202    O    0.34340   0.88537   0.82726   1.000
    O203    O    0.84339   0.88537   0.82726   1.000
    O204    O    0.44013   0.38812   0.83800   1.000
    O205    O    0.94012   0.38812   0.83800   1.000
    O206    O    0.44019   0.88816   0.83822   1.000
    O207    O    0.94018   0.88816   0.83822   1.000
    O208    O    0.28324   0.09343   0.20688   1.000
    O209    O    0.15858   0.15112   0.23427   1.000
    O210    O    0.28347   0.59332   0.20703   1.000
    O211    O    0.15852   0.65102   0.23442   1.000
    O212    O    0.78323   0.09343   0.20688   1.000
    O213    O    0.65856   0.15112   0.23427   1.000
    O214    O    0.78346   0.59332   0.20703   1.000
    O215    O    0.65851   0.65102   0.23442   1.000
    O216    O    0.93646   0.09061   0.19589   1.000
    O217    O    0.93668   0.59062   0.19608   1.000
    O218    O    0.43646   0.09061   0.19589   1.000
    O219    O    0.43668   0.59062   0.19608   1.000
    O220    O    0.40843   0.09959   0.26532   1.000
    O221    O    0.53375   0.15729   0.29272   1.000
    O222    O    0.40846   0.59949   0.26544   1.000
    O223    O    0.53350   0.65719   0.29283   1.000
    O224    O    0.90842   0.09959   0.26532   1.000
    O225    O    0.03375   0.15729   0.29272   1.000
    O226    O    0.90844   0.59949   0.26544   1.000
    O227    O    0.03350   0.65719   0.29283   1.000
    O228    O    0.18699   0.15974   0.30374   1.000
    O229    O    0.18671   0.65969   0.30382   1.000
    O230    O    0.68698   0.15974   0.30374   1.000
    O231    O    0.68670   0.65969   0.30382   1.000
    O232    O    0.21664   0.40667   0.79296   1.000
    O233    O    0.34156   0.34896   0.76558   1.000
    O234    O    0.21677   0.90659   0.79307   1.000
    O235    O    0.34149   0.84890   0.76571   1.000
    O236    O    0.71662   0.40667   0.79296   1.000
    O237    O    0.84155   0.34897   0.76558   1.000
    O238    O    0.71676   0.90659   0.79307   1.000
    O239    O    0.84148   0.84890   0.76571   1.000
    O240    O    0.56343   0.40937   0.80390   1.000
    O241    O    0.56355   0.90938   0.80404   1.000
    O242    O    0.06343   0.40937   0.80390   1.000
    O243    O    0.06355   0.90938   0.80404   1.000
    O244    O    0.09163   0.40050   0.73455   1.000
    O245    O    0.96655   0.34279   0.70717   1.000
    O246    O    0.09164   0.90042   0.73462   1.000
    O247    O    0.96636   0.84273   0.70726   1.000
    O248    O    0.59162   0.40050   0.73455   1.000
    O249    O    0.46655   0.34279   0.70717   1.000
    O250    O    0.59163   0.90042   0.73462   1.000
    O251    O    0.46636   0.84273   0.70726   1.000
    O252    O    0.31336   0.34029   0.69620   1.000
    O253    O    0.31315   0.84027   0.69625   1.000
    O254    O    0.81335   0.34029   0.69620   1.000
    O255    O    0.81313   0.84027   0.69625   1.000
    N256    N    0.45342   0.29767   0.39135   1.000
    O257    O    0.60168   0.23686   0.34624   1.000
    O258    O    0.59408   0.43861   0.30551   1.000
    O259    O    0.60137   0.34383   0.57552   1.000
    N260    N    0.70244   0.95258   0.10880   1.000
    O261    O    0.85073   0.01355   0.15376   1.000
    O262    O    0.84367   0.81186   0.19477   1.000
    O263    O    0.85113   0.90598   0.92482   1.000
    N264    N    0.79763   0.04739   0.89117   1.000
    O265    O    0.64931   0.98644   0.84621   1.000
    O266    O    0.65638   0.18812   0.80521   1.000
    O267    O    0.64892   0.09400   0.07514   1.000
    N268    N    0.20291   0.45258   0.10866   1.000
    O269    O    0.35109   0.51357   0.15363   1.000
    O270    O    0.35127   0.40597   0.92462   1.000
    O271    O    0.34409   0.31195   0.19473   1.000
    N272    N    0.04674   0.70233   0.60865   1.000
    O273    O    0.89847   0.76314   0.65375   1.000
    O274    O    0.89873   0.65615   0.42448   1.000
    O275    O    0.90605   0.56139   0.69444   1.000
    N276    N    0.54674   0.70233   0.60865   1.000
    O277    O    0.39848   0.76314   0.65375   1.000
    O278    O    0.39873   0.65615   0.42447   1.000
    O279    O    0.40606   0.56139   0.69444   1.000
    N280    N    0.95342   0.29766   0.39135   1.000
    O281    O    0.10169   0.23686   0.34624   1.000
    O282    O    0.09409   0.43861   0.30554   1.000
    O283    O    0.10138   0.34383   0.57552   1.000
    N284    N    0.45314   0.79768   0.39093   1.000
    O285    O    0.60140   0.73686   0.34630   1.000
    O286    O    0.59369   0.93863   0.30540   1.000
    O287    O    0.60108   0.84382   0.57558   1.000
    N288    N    0.70290   0.45258   0.10866   1.000
    O289    O    0.85108   0.51357   0.15363   1.000
    O290    O    0.85126   0.40597   0.92462   1.000
    O291    O    0.84408   0.31195   0.19473   1.000
    N292    N    0.29722   0.54742   0.89132   1.000
    O293    O    0.14901   0.48644   0.84636   1.000
    O294    O    0.15608   0.68807   0.80527   1.000
    O295    O    0.14887   0.59404   0.07537   1.000
    N296    N    0.04697   0.20231   0.60860   1.000
    O297    O    0.89868   0.26313   0.65366   1.000
    O298    O    0.89906   0.15618   0.42438   1.000
    O299    O    0.90636   0.06137   0.69446   1.000
    N300    N    0.79721   0.54742   0.89132   1.000
    O301    O    0.64900   0.48644   0.84636   1.000
    O302    O    0.64886   0.59404   0.07537   1.000
    O303    O    0.65607   0.68807   0.80527   1.000
    N304    N    0.54697   0.20231   0.60860   1.000
    O305    O    0.39869   0.26313   0.65366   1.000
    O306    O    0.39907   0.15618   0.42438   1.000
    O307    O    0.40637   0.06137   0.69444   1.000
    N308    N    0.29764   0.04739   0.89117   1.000
    O309    O    0.14932   0.98644   0.84621   1.000
    O310    O    0.15639   0.18812   0.80521   1.000
    O311    O    0.14893   0.09400   0.07513   1.000
    N312    N    0.20245   0.95258   0.10880   1.000
    O313    O    0.35074   0.01355   0.15373   1.000
    O314    O    0.35114   0.90598   0.92482   1.000
    O315    O    0.34368   0.81186   0.19476   1.000
    N316    N    0.95314   0.79768   0.39093   1.000
    O317    O    0.10141   0.73686   0.34630   1.000
    O318    O    0.09370   0.93863   0.30539   1.000
    O319    O    0.10109   0.84381   0.57558   1.000
loop_
    _geom_bond_atom_site_label_1
    _geom_bond_atom_site_label_2
    _geom_bond_distance
    _geom_bond_site_symmetry_2
    _ccdc_geom_bond_type
    Zr16   O112      0.63380      .   S
    Zr52   O112      0.63380      .   S
    Zr16   O113      0.64191      .   S
    Zr48   O113      0.64191      .   S
    Zr18   O114      0.63371      .   S
    Zr54   O114      0.63371      .   S
    Zr18   O115      0.64169      .   S
    Zr50   O115      0.64169      .   S
    Zr17   O116      0.63379      .   S
    Zr53   O116      0.63379      .   S
    Zr17   O117      0.64155      .   S
    Zr49   O117      0.64155      .   S
    Zr19   O118      0.63379      .   S
    Zr55   O118      0.63379      .   S
    Zr19   O119      0.64154      .   S
    Zr51   O119      0.64154      .   S
    Zr8    O120      1.15973      .   S
    Zr110  O120      1.15973      .   S
    Zr8    O121      1.16265      .   S
    Zr104  O121      1.16265      .   S
    Zr10   O122      1.15983      .   S
    Zr108  O122      1.15983  1_455   S
    Zr10   O123      1.16265      .   S
    Zr106  O123      1.16265      .   S
    Zr9    O124      1.15994      .   S
    Zr111  O124      1.15994      .   S
    Zr9    O125      1.16178      .   S
    Zr105  O125      1.16178      .   S
    Zr11   O126      1.16006      .   S
    Zr109  O126      1.16006  1_455   S
    Zr11   O127      1.16176      .   S
    Zr107  O127      1.16176      .   S
    Zr38   O128      0.63549      .   S
    Zr90   O128      0.63549      .   S
    Zr38   O129      0.63329      .   S
    Zr94   O129      0.63329      .   S
    Zr36   O130      0.63549      .   S
    Zr88   O130      0.63549      .   S
    Zr36   O131      0.63329      .   S
    Zr92   O131      0.63329      .   S
    Zr39   O132      0.63558      .   S
    Zr91   O132      0.63558      .   S
    Zr39   O133      0.63323      .   S
    Zr95   O133      0.63323      .   S
    Zr37   O134      0.63558      .   S
    Zr89   O134      0.63558      .   S
    Zr37   O135      0.63323      .   S
    Zr93   O135      0.63323      .   S
    Zr88   O136      1.16230      .   S
    Zr14   O136      1.16230      .   S
    Zr90   O137      1.16239  1_655   S
    Zr12   O137      1.16239      .   S
    Zr89   O138      1.16216      .   S
    Zr15   O138      1.16216      .   S
    Zr91   O139      1.16224  1_655   S
    Zr13   O139      1.16224      .   S
    Zr111  O140      0.63297      .   S
    Zr46   O140      0.63297      .   S
    Zr110  O141      0.63320      .   S
    Zr47   O141      0.63320  1_565   S
    Zr109  O142      0.63328      .   S
    Zr44   O142      0.63328      .   S
    Zr108  O143      0.63320      .   S
    Zr45   O143      0.63320  1_565   S
    Zr92   O144      1.15895      .   S
    Zr12   O144      1.15895      .   S
    Zr94   O145      1.15895      .   S
    Zr14   O145      1.15895      .   S
    Zr93   O146      1.15901      .   S
    Zr13   O146      1.15901      .   S
    Zr95   O147      1.15901      .   S
    Zr15   O147      1.15901      .   S
    Zr104  O148      0.63555      .   S
    Zr45   O148      0.63555  1_565   S
    Zr106  O149      0.63556      .   S
    Zr47   O149      0.63556  1_565   S
    Zr105  O150      0.63548      .   S
    Zr44   O150      0.63548      .   S
    Zr107  O151      0.63534      .   S
    Zr46   O151      0.63534      .   S
    Zr64   O152      0.64141      .   S
    Zr24   O152      0.64141      .   S
    Zr66   O153      0.64141      .   S
    Zr26   O153      0.64141      .   S
    Zr67   O154      0.64154      .   S
    Zr27   O154      0.64154      .   S
    Zr65   O155      0.64110      .   S
    Zr25   O155      0.64110      .   S
    Zr68   O156      0.63389      .   S
    Zr24   O156      0.63389      .   S
    Zr70   O157      0.63389      .   S
    Zr26   O157      0.63389      .   S
    Zr69   O158      0.63365      .   S
    Zr25   O158      0.63365      .   S
    Zr71   O159      0.63384      .   S
    Zr27   O159      0.63384      .   S
    Zr42   O160      0.63383      .   S
    Zr102  O160      0.63383      .   S
    Zr42   O161      0.64155      .   S
    Zr98   O161      0.64155      .   S
    Zr40   O162      0.63383      .   S
    Zr100  O162      0.63383      .   S
    Zr40   O163      0.64155      .   S
    Zr96   O163      0.64155      .   S
    Zr41   O164      0.63397      .   S
    Zr101  O164      0.63397      .   S
    Zr41   O165      0.64165      .   S
    Zr97   O165      0.64165      .   S
    Zr43   O166      0.63396      .   S
    Zr103  O166      0.63396      .   S
    Zr43   O167      0.64165      .   S
    Zr99   O167      0.64165      .   S
    Zr4    O168      1.15912      .   S
    Zr60   O168      1.15912      .   S
    Zr4    O169      1.16213      .   S
    Zr58   O169      1.16213      .   S
    Zr6    O170      1.15911      .   S
    Zr62   O170      1.15911      .   S
    Zr6    O171      1.16223      .   S
    Zr56   O171      1.16223  1_455   S
    Zr5    O172      1.15901      .   S
    Zr61   O172      1.15901      .   S
    Zr5    O173      1.16163      .   S
    Zr59   O173      1.16163      .   S
    Zr7    O174      1.15901      .   S
    Zr63   O174      1.15901      .   S
    Zr7    O175      1.16172      .   S
    Zr57   O175      1.16172  1_455   S
    Zr30   O176      0.63556  1_545   S
    Zr75   O176      0.63556      .   S
    Zr30   O177      0.63321  1_545   S
    Zr79   O177      0.63321      .   S
    Zr28   O178      0.63556  1_545   S
    Zr73   O178      0.63556      .   S
    Zr28   O179      0.63320  1_545   S
    Zr77   O179      0.63320      .   S
    Zr29   O180      0.63548      .   S
    Zr72   O180      0.63548      .   S
    Zr29   O181      0.63326      .   S
    Zr76   O181      0.63326      .   S
    Zr31   O182      0.63548      .   S
    Zr74   O182      0.63548      .   S
    Zr31   O183      0.63326      .   S
    Zr78   O183      0.63326      .   S
    Zr75   O184      1.16249      .   S
    Zr3    O184      1.16249      .   S
    Zr72   O185      1.16177      .   S
    Zr0    O185      1.16177      .   S
    Zr73   O186      1.16250      .   S
    Zr1    O186      1.16250      .   S
    Zr74   O187      1.16177      .   S
    Zr2    O187      1.16177      .   S
    Zr62   O188      0.63306      .   S
    Zr22   O188      0.63306      .   S
    Zr60   O189      0.63305      .   S
    Zr20   O189      0.63305      .   S
    Zr63   O190      0.63326      .   S
    Zr23   O190      0.63326      .   S
    Zr61   O191      0.63327      .   S
    Zr21   O191      0.63327      .   S
    Zr79   O192      1.15972  1_655   S
    Zr1    O192      1.15972      .   S
    Zr77   O193      1.15962      .   S
    Zr3    O193      1.15962      .   S
    Zr78   O194      1.16002  1_655   S
    Zr0    O194      1.16002      .   S
    Zr76   O195      1.15992      .   S
    Zr2    O195      1.15992      .   S
    Zr59   O196      0.63576      .   S
    Zr23   O196      0.63576      .   S
    Zr57   O197      0.63576      .   S
    Zr21   O197      0.63576      .   S
    Zr58   O198      0.63553      .   S
    Zr22   O198      0.63553      .   S
    Zr56   O199      0.63552      .   S
    Zr20   O199      0.63552      .   S
    Zr80   O200      0.64156      .   S
    Zr32   O200      0.64156      .   S
    Zr82   O201      0.64156      .   S
    Zr34   O201      0.64156      .   S
    Zr81   O202      0.64167      .   S
    Zr33   O202      0.64167      .   S
    Zr83   O203      0.64166      .   S
    Zr35   O203      0.64166      .   S
    Zr84   O204      0.63378      .   S
    Zr32   O204      0.63378      .   S
    Zr86   O205      0.63378      .   S
    Zr34   O205      0.63378      .   S
    Zr85   O206      0.63371      .   S
    Zr33   O206      0.63371      .   S
    Zr87   O207      0.63372      .   S
    Zr35   O207      0.63372      .   S
    Zr48   O208      1.22108      .   S
    Zr8    O208      1.22108      .   S
    Zr48   O209      1.23719      .   S
    Zr12   O209      1.23719      .   S
    Zr49   O210      1.22047      .   S
    Zr9    O210      1.22047      .   S
    Zr49   O211      1.23734      .   S
    Zr13   O211      1.23734      .   S
    Zr50   O212      1.22108      .   S
    Zr10   O212      1.22108      .   S
    Zr50   O213      1.23719      .   S
    Zr14   O213      1.23719      .   S
    Zr51   O214      1.22047      .   S
    Zr11   O214      1.22047      .   S
    Zr51   O215      1.23734      .   S
    Zr15   O215      1.23734      .   S
    Zr52   O216      1.18645  1_455   S
    Zr10   O216      1.18645      .   S
    Zr53   O217      1.18580  1_455   S
    Zr11   O217      1.18580      .   S
    Zr54   O218      1.18637      .   S
    Zr8    O218      1.18637      .   S
    Zr55   O219      1.18571      .   S
    Zr9    O219      1.18571      .   S
    Zr64   O220      1.23820      .   S
    Zr8    O220      1.23820      .   S
    Zr64   O221      1.21899      .   S
    Zr14   O221      1.21899      .   S
    Zr65   O222      1.23755      .   S
    Zr9    O222      1.23755      .   S
    Zr65   O223      1.21924      .   S
    Zr15   O223      1.21924      .   S
    Zr66   O224      1.23820      .   S
    Zr10   O224      1.23820      .   S
    Zr66   O225      1.21908  1_655   S
    Zr12   O225      1.21908      .   S
    Zr67   O226      1.23754      .   S
    Zr11   O226      1.23754      .   S
    Zr67   O227      1.21934  1_655   S
    Zr13   O227      1.21934      .   S
    Zr68   O228      1.18692      .   S
    Zr12   O228      1.18692      .   S
    Zr69   O229      1.18662      .   S
    Zr13   O229      1.18662      .   S
    Zr70   O230      1.18692      .   S
    Zr14   O230      1.18692      .   S
    Zr71   O231      1.18663      .   S
    Zr15   O231      1.18663      .   S
    Zr80   O232      1.22043      .   S
    Zr0    O232      1.22043      .   S
    Zr80   O233      1.23736      .   S
    Zr4    O233      1.23736      .   S
    Zr81   O234      1.22077      .   S
    Zr1    O234      1.22077      .   S
    Zr81   O235      1.23732      .   S
    Zr5    O235      1.23732      .   S
    Zr82   O236      1.22042      .   S
    Zr2    O236      1.22042      .   S
    Zr82   O237      1.23737      .   S
    Zr6    O237      1.23737      .   S
    Zr83   O238      1.22077      .   S
    Zr3    O238      1.22077      .   S
    Zr83   O239      1.23731      .   S
    Zr7    O239      1.23731      .   S
    Zr84   O240      1.18565      .   S
    Zr2    O240      1.18565      .   S
    Zr85   O241      1.18647      .   S
    Zr3    O241      1.18647      .   S
    Zr86   O242      1.18575  1_655   S
    Zr0    O242      1.18575      .   S
    Zr87   O243      1.18654  1_655   S
    Zr1    O243      1.18654      .   S
    Zr96   O244      1.23768      .   S
    Zr0    O244      1.23768      .   S
    Zr96   O245      1.21930  1_455   S
    Zr6    O245      1.21930      .   S
    Zr97   O246      1.23801      .   S
    Zr1    O246      1.23801      .   S
    Zr97   O247      1.21902  1_455   S
    Zr7    O247      1.21902      .   S
    Zr98   O248      1.23769      .   S
    Zr2    O248      1.23769      .   S
    Zr98   O249      1.21920      .   S
    Zr4    O249      1.21920      .   S
    Zr99   O250      1.23801      .   S
    Zr3    O250      1.23801      .   S
    Zr99   O251      1.21893      .   S
    Zr5    O251      1.21893      .   S
    Zr100  O252      1.18659      .   S
    Zr4    O252      1.18659      .   S
    Zr101  O253      1.18686      .   S
    Zr5    O253      1.18686      .   S
    Zr102  O254      1.18659      .   S
    Zr6    O254      1.18659      .   S
    Zr103  O255      1.18685      .   S
    Zr7    O255      1.18685      .   S
    N256   O257      2.35713      .   S
    Zr14   O257      1.88603      .   S
    N256   O258      4.50061      .   S
    Zr46   O258      1.83829      .   S
    N256   O259      4.49882      .   S
    Zr42   O259      1.82736      .   S
    N260   O261      2.35875  1_565   S
    Zr10   O261      1.88524      .   S
    N260   O262      4.50029      .   S
    Zr39   O262      1.83751      .   S
    N260   O263      4.49846  1_554   S
    Zr35   O263      1.82745      .   S
    N264   O265      2.35882  1_545   S
    Zr3    O265      1.88532      .   S
    N264   O266      4.50045      .   S
    Zr22   O266      1.83781      .   S
    N264   O267      4.49840  1_556   S
    Zr18   O267      1.82739      .   S
    N268   O269      2.35834      .   S
    Zr9    O269      1.88710      .   S
    N268   O270      4.49832  1_554   S
    Zr32   O270      1.82721      .   S
    N268   O271      4.49939      .   S
    Zr36   O271      1.83747      .   S
    N272   O273      2.35731  1_455   S
    Zr7    O273      1.88641      .   S
    N272   O274      4.49909  1_455   S
    Zr27   O274      1.82728      .   S
    N272   O275      4.49995  1_455   S
    Zr31   O275      1.83819      .   S
    N276   O277      2.35721      .   S
    Zr5    O277      1.88640      .   S
    N276   O278      4.49931      .   S
    Zr25   O278      1.82831      .   S
    N276   O279      4.49996      .   S
    Zr29   O279      1.83813      .   S
    N280   O281      2.35722  1_655   S
    Zr12   O281      1.88604      .   S
    N280   O282      4.50029  1_655   S
    Zr44   O282      1.83771      .   S
    N280   O283      4.49885  1_655   S
    Zr40   O283      1.82737      .   S
    N284   O285      2.35374      .   S
    Zr15   O285      1.88690      .   S
    N284   O286      4.49635      .   S
    Zr47   O286      1.83633      .   S
    N284   O287      4.50850      .   S
    Zr43   O287      1.82718      .   S
    N288   O289      2.35834      .   S
    Zr11   O289      1.88710      .   S
    N288   O290      4.49832  1_554   S
    Zr34   O290      1.82720      .   S
    N288   O291      4.49939      .   S
    Zr38   O291      1.83748      .   S
    N292   O293      2.35828      .   S
    Zr0    O293      1.88752      .   S
    N292   O294      4.49966      .   S
    Zr21   O294      1.83742      .   S
    N292   O295      4.49838  1_556   S
    Zr17   O295      1.82733      .   S
    N296   O297      2.35729  1_455   S
    Zr6    O297      1.88731      .   S
    N296   O298      4.49969  1_455   S
    Zr26   O298      1.82764      .   S
    N296   O299      4.50057  1_455   S
    Zr30   O299      1.83806      .   S
    N300   O301      2.35828      .   S
    Zr2    O301      1.88752      .   S
    N300   O302      4.49837  1_556   S
    Zr19   O302      1.82733      .   S
    N300   O303      4.49960      .   S
    Zr23   O303      1.83749      .   S
    N304   O305      2.35720      .   S
    Zr4    O305      1.88730      .   S
    N304   O306      4.49966      .   S
    Zr24   O306      1.82762      .   S
    N304   O307      4.50023      .   S
    Zr28   O307      1.83838      .   S
    N308   O309      2.35881  1_545   S
    Zr1    O309      1.88532      .   S
    N308   O310      4.50044      .   S
    Zr20   O310      1.83781      .   S
    N308   O311      4.49825  1_556   S
    Zr16   O311      1.82689      .   S
    N312   O313      2.35854  1_565   S
    Zr8    O313      1.88574      .   S
    N312   O314      4.49846  1_554   S
    Zr33   O314      1.82746      .   S
    N312   O315      4.50017      .   S
    Zr37   O315      1.83765      .   S
    N316   O317      2.35384  1_655   S
    Zr13   O317      1.88692      .   S
    N316   O318      4.49641  1_655   S
    Zr45   O318      1.83632      .   S
    N316   O319      4.50853  1_655   S
    Zr41   O319      1.82719      .   S
