# CIF file generated by openbabel 2.4.90, see http://openbabel.sf.net
data_I
_chemical_name_common ''
_cell_length_a 13.4
_cell_length_b 13.401
_cell_length_c 13.401
_cell_angle_alpha 59.977
_cell_angle_beta 59.995
_cell_angle_gamma 59.995
_space_group_name_H-M_alt 'P 1'
_space_group_name_Hall 'P 1'
loop_
    _symmetry_equiv_pos_as_xyz
    x,y,z
loop_
    _atom_site_label
    _atom_site_type_symbol
    _atom_site_fract_x
    _atom_site_fract_y
    _atom_site_fract_z
    _atom_site_occupancy
    H0      H    0.84634   0.00000   0.34666   1.000
    H1      H    0.84627   0.79869   0.34642   1.000
    H2      H    0.84666   0.79818   0.00000   1.000
    H3      H    0.84667   0.00000   0.79816   1.000
    H4      H    0.15329   0.99142   0.20183   1.000
    H5      H    0.15329   0.20183   0.99141   1.000
    H6      H    0.15368   0.65358   0.20132   1.000
    H7      H    0.15362   0.65333   0.99115   1.000
    H8      H    0.15360   0.99115   0.65333   1.000
    H9      H    0.15368   0.20132   0.65350   1.000
    C10     C    0.88931   0.91242   0.38949   1.000
    C11     C    0.88926   0.80905   0.38940   1.000
    C12     C    0.88952   0.80873   0.91218   1.000
    C13     C    0.88952   0.91219   0.80871   1.000
    C14     C    0.11043   0.08781   0.19128   1.000
    C15     C    0.11043   0.19128   0.08781   1.000
    C16     C    0.11068   0.61061   0.19095   1.000
    C17     C    0.11065   0.61050   0.08758   1.000
    C18     C    0.11064   0.08758   0.61050   1.000
    C19     C    0.11069   0.19095   0.61059   1.000
    N20     N    0.95762   0.87429   0.45774   1.000
    N21     N    0.95758   0.71043   0.45758   1.000
    N22     N    0.95774   0.71022   0.87420   1.000
    N23     N    0.95774   0.87420   0.71021   1.000
    N24     N    0.04221   0.12580   0.28978   1.000
    N25     N    0.04221   0.28979   0.12579   1.000
    N26     N    0.04237   0.54241   0.28957   1.000
    N27     N    0.04233   0.54226   0.12570   1.000
    N28     N    0.04233   0.12571   0.54225   1.000
    N29     N    0.04237   0.28958   0.54241   1.000
    N30     N    0.99839   0.75155   0.49837   1.000
    N31     N    0.99841   0.75146   0.75146   1.000
    N32     N    0.00154   0.24854   0.24853   1.000
    N33     N    0.00156   0.50164   0.24845   1.000
    N34     N    0.00156   0.24846   0.50162   1.000
loop_
    _geom_bond_atom_site_label_1
    _geom_bond_atom_site_label_2
    _geom_bond_distance
    _geom_bond_site_symmetry_2
    _ccdc_geom_bond_type
    H2     C12       0.98669  1_554   S
    C17    N27       1.35560      .   S
    C17    C16       1.38616      .   S
    C17    H7        1.08398  1_554   S
    C15    N25       1.35555      .   S
    C15    C14       1.38609      .   S
    C15    H5        1.08402  1_554   S
    N27    N33       1.34286      .   S
    N25    N32       1.34274      .   S
    C16    H6        1.08395      .   S
    C16    N26       1.35562      .   S
    C14    H4        1.08397  1_545   S
    C14    N24       1.35551      .   S
    N33    N26       1.34279      .   S
    N32    N24       1.34276      .   S
    H1     C11       1.08398      .   S
    H0     C10       1.00943  1_545   S
    C11    C10       1.38615      .   S
    C11    N21       1.35564      .   S
    C10    N20       1.35551      .   S
    N21    N30       1.34287      .   S
    N20    N30       1.34276      .   S
    N34    N28       1.34276      .   S
    N34    N29       1.34286      .   S
    N28    C18       1.35549      .   S
    N29    C19       1.35563      .   S
    C18    C19       1.38615      .   S
    C18    H8        1.08398  1_545   S
    C19    H9        1.08316      .   S
    N23    N31       1.34278      .   S
    N23    C13       1.35551      .   S
    N31    N22       1.34274      .   S
    H3     C13       0.98654  1_545   S
    C13    C12       1.38609      .   S
    N22    C12       1.35555      .   S
