# CIF file generated by openbabel 2.4.90, see http://openbabel.sf.net
data_I
_chemical_name_common ''
_cell_length_a 13.4
_cell_length_b 13.401
_cell_length_c 13.401
_cell_angle_alpha 59.977
_cell_angle_beta 59.995
_cell_angle_gamma 59.995
_space_group_name_H-M_alt 'P 1'
_space_group_name_Hall 'P 1'
loop_
    _symmetry_equiv_pos_as_xyz
    x,y,z
loop_
    _atom_site_label
    _atom_site_type_symbol
    _atom_site_fract_x
    _atom_site_fract_y
    _atom_site_fract_z
    _atom_site_occupancy
    H0      H    0.50861   0.34660   0.79840   1.000
    H1      H    0.29820   0.34672   0.00000   1.000
    H2      H    0.50860   0.79841   0.34659   1.000
    H3      H    0.84627   0.34643   0.79867   1.000
    H4      H    0.29819   0.00000   0.34671   1.000
    H5      H    0.84633   0.34667   0.00000   1.000
    H6      H    0.50872   0.34657   0.34657   1.000
    H7      H    0.29848   0.34646   0.34647   1.000
    H8      H    0.49123   0.65343   0.65342   1.000
    H9      H    0.70147   0.65354   0.65352   1.000
    H10     H    0.70176   0.99129   0.65328   1.000
    H11     H    0.49135   0.20159   0.65340   1.000
    H12     H    0.70175   0.65328   0.99128   1.000
    H13     H    0.49134   0.65340   0.20100   1.000
    C14     C    0.41223   0.38948   0.80880   1.000
    C15     C    0.30876   0.38955   0.91230   1.000
    C16     C    0.41222   0.80888   0.38948   1.000
    C17     C    0.88927   0.38940   0.80905   1.000
    C18     C    0.30876   0.91231   0.38954   1.000
    C19     C    0.88930   0.38950   0.91240   1.000
    C20     C    0.41231   0.38947   0.38946   1.000
    C21     C    0.30892   0.38942   0.38942   1.000
    C22     C    0.58764   0.61053   0.61053   1.000
    C23     C    0.69104   0.61058   0.61057   1.000
    C24     C    0.69119   0.08770   0.61045   1.000
    C25     C    0.58773   0.19112   0.61051   1.000
    C26     C    0.69119   0.61045   0.08769   1.000
    C27     C    0.58772   0.61052   0.19112   1.000
    N28     N    0.37426   0.45765   0.71032   1.000
    N29     N    0.21027   0.45771   0.87420   1.000
    N30     N    0.37426   0.71032   0.45763   1.000
    N31     N    0.95758   0.45759   0.71042   1.000
    N32     N    0.21027   0.87425   0.45771   1.000
    N33     N    0.95762   0.45775   0.87429   1.000
    N34     N    0.37424   0.45772   0.45773   1.000
    N35     N    0.21035   0.45766   0.45766   1.000
    N36     N    0.62571   0.54228   0.54226   1.000
    N37     N    0.78960   0.54235   0.54233   1.000
    N38     N    0.78968   0.12576   0.54228   1.000
    N39     N    0.62569   0.28968   0.54236   1.000
    N40     N    0.78968   0.54229   0.12575   1.000
    N41     N    0.62569   0.54236   0.28967   1.000
    N42     N    0.25153   0.49835   0.75150   1.000
    N43     N    0.25153   0.75151   0.49836   1.000
    N44     N    0.99840   0.49837   0.75150   1.000
    N45     N    0.25151   0.49845   0.49842   1.000
    N46     N    0.74844   0.50156   0.50157   1.000
    N47     N    0.74843   0.24850   0.50163   1.000
    N48     N    0.74843   0.50165   0.24849   1.000
loop_
    _geom_bond_atom_site_label_1
    _geom_bond_atom_site_label_2
    _geom_bond_distance
    _geom_bond_site_symmetry_2
    _ccdc_geom_bond_type
    H5     C19       1.00960  1_554   S
    H1     C15       0.98518  1_554   S
    C26    N40       1.35561      .   S
    C26    C27       1.38614      .   S
    C26    H12       1.08398  1_554   S
    N40    N48       1.34275      .   S
    C27    H13       1.08560      .   S
    C27    N41       1.35553      .   S
    N48    N41       1.34280      .   S
    H7     C21       1.08397      .   S
    H6     C20       1.08396      .   S
    H2     C16       1.08396      .   S
    H4     C18       0.98507  1_545   S
    C21    C20       1.38609      .   S
    C21    N35       1.35562      .   S
    C20    N34       1.35564      .   S
    C16    C18       1.38612      .   S
    C16    N30       1.35561      .   S
    C18    N32       1.35557      .   S
    N30    N43       1.34280      .   S
    N35    N45       1.34276      .   S
    N32    N43       1.34278      .   S
    N34    N45       1.34276      .   S
    N46    N36       1.34276      .   S
    N46    N37       1.34276      .   S
    N47    N38       1.34278      .   S
    N47    N39       1.34281      .   S
    N36    C22       1.35565      .   S
    N38    C24       1.35558      .   S
    N37    C23       1.35562      .   S
    N39    C25       1.35560      .   S
    C24    C25       1.38612      .   S
    C24    H10       1.08396  1_545   S
    C25    H11       1.08396      .   S
    C22    C23       1.38609      .   S
    C22    H8        1.08396      .   S
    C23    H9        1.08397      .   S
    N28    N42       1.34281      .   S
    N28    C14       1.35475      .   S
    N31    N44       1.34234      .   S
    N31    C17       1.35567      .   S
    N44    N33       1.34330      .   S
    N42    N29       1.34231      .   S
    H0     C14       1.08416      .   S
    H3     C17       1.08404      .   S
    C14    C15       1.38662      .   S
    C17    C19       1.38589      .   S
    N29    C15       1.35589      .   S
    N33    C19       1.35564      .   S
