# CIF file generated by openbabel 2.4.90, see http://openbabel.sf.net
data_I
_chemical_name_common ''
_cell_length_a 13.4
_cell_length_b 13.401
_cell_length_c 13.401
_cell_angle_alpha 59.977
_cell_angle_beta 59.995
_cell_angle_gamma 59.995
_space_group_name_H-M_alt 'P 1'
_space_group_name_Hall 'P 1'
loop_
    _symmetry_equiv_pos_as_xyz
    x,y,z
loop_
    _atom_site_label
    _atom_site_type_symbol
    _atom_site_fract_x
    _atom_site_fract_y
    _atom_site_fract_z
    _atom_site_occupancy
    N0      N    0.66226   0.16223   0.58770   1.000
    N1      N    0.33769   0.41230   0.83650   1.000
    N2      N    0.33769   0.83653   0.41229   1.000
    N3      N    0.91211   0.41224   0.83662   1.000
    N4      N    0.33779   0.41225   0.41225   1.000
    N5      N    0.66216   0.58775   0.58774   1.000
    N6      N    0.66226   0.58771   0.16214   1.000
    Zr7     Zr   0.99999   0.50000   0.55000   1.000
    O8      O    0.97272   0.47276   0.64796   1.000
    O9      O    0.11073   0.47277   0.49777   1.000
    Zr10    Zr   0.12497   0.62493   0.62492   1.000
    O11     O    0.19397   0.55595   0.69364   1.000
    O12     O    0.19399   0.55595   0.55594   1.000
    O13     O    0.19397   0.69365   0.55594   1.000
    O14     O    0.05593   0.55594   0.69367   1.000
    Zr15    Zr   0.87498   0.37508   0.37507   1.000
    O16     O    0.80598   0.44406   0.30602   1.000
    O17     O    0.80596   0.44406   0.44405   1.000
    O18     O    0.80598   0.30604   0.44405   1.000
    Zr19    Zr   0.49997   0.50000   0.50000   1.000
    O20     O    0.55626   0.52722   0.38924   1.000
    O21     O    0.44371   0.47278   0.47278   1.000
    O22     O    0.55624   0.52722   0.52722   1.000
    O23     O    0.44369   0.47278   0.61042   1.000
    O24     O    0.55626   0.38927   0.52722   1.000
    O25     O    0.44369   0.61042   0.47278   1.000
loop_
    _geom_bond_atom_site_label_1
    _geom_bond_atom_site_label_2
    _geom_bond_distance
    _geom_bond_site_symmetry_2
    _ccdc_geom_bond_type
    Zr7    O8        1.07895      .   S
    N3     O8        2.06462      .   S
    Zr7    O9        1.22493  1_655   S
    N4     O9        2.49060      .   S
    Zr10   O11       1.30474      .   S
    N1     O11       2.71513      .   S
    Zr10   O12       1.30743      .   S
    N4     O12       2.72355      .   S
    Zr10   O13       1.30477      .   S
    N2     O13       2.71521      .   S
    Zr10   O14       1.30767      .   S
    N3     O14       2.72393  1_655   S
    Zr15   O16       1.30793      .   S
    N6     O16       2.72468      .   S
    Zr15   O17       1.30743      .   S
    N5     O17       2.72355      .   S
    Zr15   O18       1.30772      .   S
    N0     O18       2.72406      .   S
    Zr19   O20       1.23233      .   S
    N6     O20       2.50922      .   S
    Zr19   O21       1.23203      .   S
    N4     O21       2.50838      .   S
    Zr19   O22       1.23200      .   S
    N5     O22       2.50833      .   S
    Zr19   O23       1.22891      .   S
    N1     O23       2.49879      .   S
    Zr19   O24       1.23210      .   S
    N0     O24       2.50855      .   S
    Zr19   O25       1.22897      .   S
    N2     O25       2.49896      .   S
