# CIF file generated by openbabel 2.4.90, see http://openbabel.sf.net
data_I
_chemical_name_common ''
_cell_length_a 13.4
_cell_length_b 13.401
_cell_length_c 13.401
_cell_angle_alpha 59.977
_cell_angle_beta 59.995
_cell_angle_gamma 59.995
_space_group_name_H-M_alt 'P 1'
_space_group_name_Hall 'P 1'
loop_
    _symmetry_equiv_pos_as_xyz
    x,y,z
loop_
    _atom_site_label
    _atom_site_type_symbol
    _atom_site_fract_x
    _atom_site_fract_y
    _atom_site_fract_z
    _atom_site_occupancy
    N0      N    0.66226   0.16223   0.58770   1.000
    N1      N    0.33769   0.41230   0.83650   1.000
    N2      N    0.91211   0.83663   0.41224   1.000
    N3      N    0.33769   0.83653   0.41229   1.000
    N4      N    0.91211   0.41224   0.83662   1.000
    N5      N    0.33779   0.41225   0.41225   1.000
    N6      N    0.91232   0.83643   0.83642   1.000
    N7      N    0.08763   0.16235   0.16235   1.000
    N8      N    0.66216   0.58775   0.58774   1.000
    N9      N    0.08784   0.58776   0.16210   1.000
    N10     N    0.08784   0.16211   0.58774   1.000
    N11     N    0.66226   0.58771   0.16214   1.000
    Zr12    Zr   0.99999   0.00002   0.00000   1.000
    Zr13    Zr   0.99999   0.50000   0.55000   1.000
    O14     O    0.97272   0.47276   0.64796   1.000
    O15     O    0.11073   0.47277   0.49777   1.000
    Zr16    Zr   0.12497   0.62493   0.62492   1.000
    O17     O    0.05593   0.69368   0.55593   1.000
    O18     O    0.19397   0.55595   0.69364   1.000
    O19     O    0.19399   0.55595   0.55594   1.000
    O20     O    0.05599   0.69362   0.69361   1.000
    O21     O    0.19397   0.69365   0.55594   1.000
    O22     O    0.05593   0.55594   0.69367   1.000
    Zr23    Zr   0.87498   0.37508   0.37507   1.000
    O24     O    0.80598   0.44406   0.30602   1.000
    O25     O    0.94396   0.30608   0.30607   1.000
    O26     O    0.80596   0.44406   0.44405   1.000
    O27     O    0.94402   0.44407   0.30600   1.000
    O28     O    0.94402   0.30601   0.44406   1.000
    O29     O    0.80598   0.30604   0.44405   1.000
    Zr30    Zr   0.49997   0.50000   0.50000   1.000
    O31     O    0.55626   0.52722   0.38924   1.000
    O32     O    0.44371   0.47278   0.47278   1.000
    O33     O    0.55624   0.52722   0.52722   1.000
    O34     O    0.44369   0.47278   0.61042   1.000
    O35     O    0.55626   0.38927   0.52722   1.000
    O36     O    0.44369   0.61042   0.47278   1.000
loop_
    _geom_bond_atom_site_label_1
    _geom_bond_atom_site_label_2
    _geom_bond_distance
    _geom_bond_site_symmetry_2
    _ccdc_geom_bond_type
    Zr13   O14       1.07895      .   S
    N4     O14       2.06462      .   S
    Zr13   O15       1.22493  1_655   S
    N5     O15       2.49060      .   S
    Zr16   O17       1.30766      .   S
    N2     O17       2.72391  1_655   S
    Zr16   O18       1.30474      .   S
    N1     O18       2.71513      .   S
    Zr16   O19       1.30743      .   S
    N5     O19       2.72355      .   S
    Zr16   O20       1.30196      .   S
    N6     O20       2.70673  1_655   S
    Zr16   O21       1.30477      .   S
    N3     O21       2.71521      .   S
    Zr16   O22       1.30767      .   S
    N4     O22       2.72393  1_655   S
    Zr23   O24       1.30793      .   S
    N11    O24       2.72468      .   S
    Zr23   O25       1.30777      .   S
    N7     O25       2.72414  1_455   S
    Zr23   O26       1.30743      .   S
    N8     O26       2.72355      .   S
    Zr23   O27       1.30766      .   S
    N9     O27       2.72390  1_455   S
    Zr23   O28       1.30762      .   S
    N10    O28       2.72380  1_455   S
    Zr23   O29       1.30772      .   S
    N0     O29       2.72406      .   S
    Zr30   O31       1.23233      .   S
    N11    O31       2.50922      .   S
    Zr30   O32       1.23203      .   S
    N5     O32       2.50838      .   S
    Zr30   O33       1.23200      .   S
    N8     O33       2.50833      .   S
    Zr30   O34       1.22891      .   S
    N1     O34       2.49879      .   S
    Zr30   O35       1.23210      .   S
    N0     O35       2.50855      .   S
    Zr30   O36       1.22897      .   S
    N3     O36       2.49896      .   S
