# CIF file generated by openbabel 2.4.90, see http://openbabel.sf.net
data_I
_chemical_name_common ''
_cell_length_a 13.07
_cell_length_b 24.209
_cell_length_c 15.042
_cell_angle_alpha 90.033
_cell_angle_beta 90.136
_cell_angle_gamma 90.336
_space_group_name_H-M_alt 'P 1'
_space_group_name_Hall 'P 1'
loop_
    _symmetry_equiv_pos_as_xyz
    x,y,z
loop_
    _atom_site_label
    _atom_site_type_symbol
    _atom_site_fract_x
    _atom_site_fract_y
    _atom_site_fract_z
    _atom_site_occupancy
    Zn0     Zn   0.73341   0.97712   0.60571   1.000
    Zn1     Zn   0.15515   0.93282   0.00000   1.000
    Zn2     Zn   0.26254   0.02330   0.10661   1.000
    Zn3     Zn   0.65319   0.56917   0.52327   1.000
    Zn4     Zn   0.76059   0.47921   0.61290   1.000
    Zn5     Zn   0.34262   0.43296   0.00000   1.000
    Zn6     Zn   0.23507   0.52302   0.11035   1.000
    Pt7     Pt   0.98984   0.25028   0.86598   1.000
    Zn8     Zn   0.84373   0.06736   0.51905   1.000
    Pt9     Pt   0.00000   0.75039   0.36525   1.000
    Pt10    Pt   0.50892   0.75113   0.86884   1.000
    Pt11    Pt   0.49134   0.25023   0.36724   1.000
    C12     C    0.89457   0.06750   0.68505   1.000
    C13     C    0.10406   0.03866   0.96090   1.000
    C14     C    0.13484   0.44201   0.98905   1.000
    C15     C    0.86911   0.45141   0.74320   1.000
    C16     C    0.10287   0.93277   0.18485   1.000
    C17     C    0.89174   0.96223   0.45891   1.000
    C18     C    0.86066   0.55973   0.48851   1.000
    C19     C    0.12646   0.54869   0.24310   1.000
    C20     C    0.60502   0.56822   0.69159   1.000
    C21     C    0.39395   0.53905   0.96554   1.000
    C22     C    0.36334   0.94280   0.98622   1.000
    C23     C    0.62842   0.95159   0.74000   1.000
    C24     C    0.39228   0.43345   0.19094   1.000
    C25     C    0.60021   0.46273   0.46766   1.000
    C26     C    0.63431   0.05770   0.48668   1.000
    C27     C    0.36932   0.04975   0.23952   1.000
    Cl28    Cl   0.01133   0.26003   0.71172   1.000
    Cl29    Cl   0.97544   0.24227   0.02047   1.000
    Cl30    Cl   0.98656   0.74048   0.21080   1.000
    Cl31    Cl   0.02063   0.75871   0.51986   1.000
    Cl32    Cl   0.48698   0.75937   0.71427   1.000
    Cl33    Cl   0.52341   0.74444   0.02349   1.000
    Cl34    Cl   0.51391   0.24215   0.21280   1.000
    Cl35    Cl   0.47602   0.25666   0.52186   1.000
    O36     O    0.90651   0.10137   0.61960   1.000
    O37     O    0.84943   0.02122   0.67985   1.000
    O38     O    0.09271   0.98642   0.94526   1.000
    O39     O    0.16069   0.05969   0.02010   1.000
    O40     O    0.20745   0.40718   0.00390   1.000
    O41     O    0.13425   0.49140   0.00000   1.000
    O42     O    0.87580   0.50274   0.73449   1.000
    O43     O    0.81287   0.42092   0.69090   1.000
    O44     O    0.09345   0.89840   0.11972   1.000
    O45     O    0.14663   0.97944   0.17980   1.000
    O46     O    0.90253   0.01438   0.44199   1.000
    O47     O    0.83621   0.94174   0.51912   1.000
    O48     O    0.78737   0.59468   0.49978   1.000
    O49     O    0.86160   0.51114   0.51923   1.000
    O50     O    0.11933   0.49748   0.23439   1.000
    O51     O    0.18255   0.57930   0.19095   1.000
    O52     O    0.59549   0.60216   0.62608   1.000
    O53     O    0.64832   0.52169   0.68760   1.000
    O54     O    0.40485   0.48690   0.94944   1.000
    O55     O    0.33774   0.55968   0.02480   1.000
    O56     O    0.29022   0.90767   0.99985   1.000
    O57     O    0.36417   0.99208   0.00000   1.000
    O58     O    0.62180   0.00273   0.73017   1.000
    O59     O    0.68341   0.92070   0.68796   1.000
    O60     O    0.40438   0.40021   0.12476   1.000
    O61     O    0.34682   0.47937   0.18722   1.000
    O62     O    0.58659   0.51484   0.45288   1.000
    O63     O    0.65807   0.44239   0.52619   1.000
    O64     O    0.70719   0.09241   0.50380   1.000
    O65     O    0.63255   0.00000   0.51239   1.000
    O66     O    0.37393   0.99841   0.23040   1.000
    O67     O    0.31509   0.08075   0.18696   1.000
    Ts68    Ts   0.99178   0.22229   0.86207   1.000
    Ts69    Ts   0.98713   0.27823   0.86849   1.000
    Ts70    Ts   0.00000   0.77837   0.36127   1.000
    Ts71    Ts   0.00000   0.72245   0.36781   1.000
    Ts72    Ts   0.50697   0.72311   0.86548   1.000
    Ts73    Ts   0.51170   0.77910   0.87066   1.000
    Ts74    Ts   0.49277   0.27828   0.36405   1.000
    Ts75    Ts   0.48876   0.22224   0.36899   1.000
    Og76    Og   0.91056   0.07402   0.71313   1.000
    Og77    Og   0.08413   0.05086   0.94077   1.000
    Og78    Og   0.10701   0.43419   0.97020   1.000
    Og79    Og   0.88887   0.44142   0.76670   1.000
    Og80    Og   0.08655   0.92632   0.21274   1.000
    Og81    Og   0.91159   0.94995   0.43887   1.000
    Og82    Og   0.88869   0.56731   0.46968   1.000
    Og83    Og   0.10687   0.55879   0.26661   1.000
    Og84    Og   0.58881   0.57477   0.71940   1.000
    Og85    Og   0.41394   0.55135   0.94550   1.000
    Og86    Og   0.39130   0.93505   0.96765   1.000
    Og87    Og   0.60895   0.94173   0.76396   1.000
    Og88    Og   0.40837   0.42684   0.21885   1.000
    Og89    Og   0.58062   0.45037   0.44727   1.000
    Og90    Og   0.60679   0.06566   0.46779   1.000
    Og91    Og   0.38922   0.05960   0.26329   1.000
loop_
    _geom_bond_atom_site_label_1
    _geom_bond_atom_site_label_2
    _geom_bond_distance
    _geom_bond_site_symmetry_2
    _ccdc_geom_bond_type
    Zn1    O44       2.14209      .   S
    Zn1    O38       1.74304  1_554   S
    Zn1    O56       1.87081  1_554   S
    Zn5    O40       1.87134      .   S
    Zn5    O60       2.19184      .   S
    Zn5    O54       1.71370  1_554   S
    O41    Zn6       2.24805      .   S
    O41    C14       1.20698  1_554   S
    O57    Zn2       2.21987  1_565   S
    O57    C22       1.21092  1_554   S
    O40    C14       1.29238  1_554   S
    O39    Zn2       2.06110      .   S
    O39    C13       1.26166  1_554   S
    Cl29   Pt7       2.33997  1_554   S
    Cl33   Pt10      2.33927  1_554   S
    O55    Zn6       2.05910      .   S
    O55    C21       1.26115  1_554   S
    Zn2    O45       2.15056  1_545   S
    Zn2    O67       1.96205      .   S
    Zn6    O61       2.14439      .   S
    Zn6    O51       1.95208      .   S
    O44    C16       1.29018      .   S
    O60    C24       1.29033      .   S
    O45    C16       1.26573      .   S
    O67    C27       1.30186      .   S
    O61    C24       1.26483      .   S
    O51    C19       1.30348      .   S
    Cl30   Pt9       2.34155  1_655   S
    Cl34   Pt11      2.35063      .   S
    O66    C27       1.25225  1_565   S
    O50    C19       1.24948      .   S
    Pt9    Cl31      2.34897      .   S
    Pt11   Cl35      2.34004      .   S
    O46    C17       1.29486  1_545   S
    O46    Zn8       1.89563      .   S
    O62    C25       1.29441      .   S
    O62    Zn3       1.89452      .   S
    C17    O47       1.26194      .   S
    C25    O63       1.26147      .   S
    C26    O64       1.29187      .   S
    C26    O65       1.44980      .   S
    C18    O48       1.29319      .   S
    C18    O49       1.26407      .   S
    O48    Zn3       1.88994      .   S
    O64    Zn8       1.90155      .   S
    O65    Zn0       2.00394  1_545   S
    Zn8    O36       1.90364      .   S
    O47    Zn0       2.06296      .   S
    O49    Zn4       2.07942      .   S
    Zn3    O52       1.89979      .   S
    O63    Zn4       2.06578      .   S
    Zn0    O37       2.15750  1_565   S
    Zn0    O59       1.95400      .   S
    Zn4    O53       2.12068      .   S
    Zn4    O43       1.96061      .   S
    O36    C12       1.29085      .   S
    O52    C20       1.28970      .   S
    O37    C12       1.26536      .   S
    O53    C20       1.26503      .   S
    O59    C23       1.30255      .   S
    O43    C15       1.30160      .   S
    Cl28   Pt7       2.34984  1_455   S
    Cl32   Pt10      2.35074      .   S
    O58    C23       1.25048  1_545   S
    O42    C15       1.25218      .   S
    O38    C13       1.29395  1_565   S
    O54    C21       1.29411      .   S
    C22    O56       1.29237      .   S
    Pt7    Ts68      0.68082      .   S
    Pt7    Ts69      0.67879      .   S
    Pt9    Ts70      0.67998      .   S
    Pt9    Ts71      0.67769      .   S
    Pt10   Ts72      0.68041      .   S
    Pt10   Ts73      0.67857      .   S
    Pt11   Ts74      0.68094      .   S
    Pt11   Ts75      0.67882      .   S
    C12    Og76      0.49618      .   S
    C13    Og77      0.49743      .   S
    C14    Og78      0.49720      .   S
    C15    Og79      0.50054      .   S
    C16    Og80      0.49602      .   S
    C17    Og81      0.49773      .   S
    C18    Og82      0.49790      .   S
    C19    Og83      0.50136      .   S
    C20    Og84      0.49572      .   S
    C21    Og85      0.49743      .   S
    C22    Og86      0.49795      .   S
    C23    Og87      0.50143      .   S
    C24    Og88      0.49614      .   S
    C25    Og89      0.49775      .   S
    C26    Og90      0.49748      .   S
    C27    Og91      0.50095      .   S
