# CIF file generated by openbabel 2.4.90, see http://openbabel.sf.net
data_I
_chemical_name_common ''
_cell_length_a 13.07
_cell_length_b 24.209
_cell_length_c 15.042
_cell_angle_alpha 90.033
_cell_angle_beta 90.136
_cell_angle_gamma 90.336
_space_group_name_H-M_alt 'P 1'
_space_group_name_Hall 'P 1'
loop_
    _symmetry_equiv_pos_as_xyz
    x,y,z
loop_
    _atom_site_label
    _atom_site_type_symbol
    _atom_site_fract_x
    _atom_site_fract_y
    _atom_site_fract_z
    _atom_site_occupancy
    C0      C    0.84373   0.06736   0.51905   1.000
    C1      C    0.73341   0.97712   0.60571   1.000
    C2      C    0.15515   0.93282   0.00000   1.000
    C3      C    0.26254   0.02330   0.10661   1.000
    C4      C    0.65319   0.56917   0.52327   1.000
    C5      C    0.76059   0.47921   0.61290   1.000
    C6      C    0.34262   0.43296   0.00000   1.000
    C7      C    0.23507   0.52302   0.11035   1.000
    C8      C    0.91407   0.17290   0.73635   1.000
    C9      C    0.98691   0.00724   0.82058   1.000
    C10     C    0.08435   0.15252   0.96728   1.000
    C11     C    0.08692   0.33517   0.97643   1.000
    C12     C    0.99668   0.49460   0.87199   1.000
    C13     C    0.87999   0.34065   0.76704   1.000
    C14     C    0.08339   0.82757   0.23639   1.000
    C15     C    0.00859   0.99328   0.31884   1.000
    C16     C    0.91152   0.84824   0.46573   1.000
    C17     C    0.90989   0.66608   0.47525   1.000
    C18     C    0.99869   0.50613   0.37189   1.000
    C19     C    0.11692   0.65955   0.26696   1.000
    C20     C    0.58564   0.67368   0.74162   1.000
    C21     C    0.51132   0.50800   0.82640   1.000
    C22     C    0.41382   0.65323   0.97120   1.000
    C23     C    0.41216   0.83641   0.97680   1.000
    C24     C    0.50130   0.99532   0.86770   1.000
    C25     C    0.61869   0.84107   0.76787   1.000
    C26     C    0.41462   0.32771   0.23940   1.000
    C27     C    0.48236   0.49355   0.32810   1.000
    C28     C    0.58361   0.34839   0.47130   1.000
    C29     C    0.58856   0.16469   0.47569   1.000
    C30     C    0.49577   0.00000   0.36809   1.000
    C31     C    0.38223   0.16034   0.26568   1.000
    C32     C    0.98984   0.25028   0.86598   1.000
    C33     C    0.00000   0.75039   0.36525   1.000
    C34     C    0.50892   0.75113   0.86884   1.000
    C35     C    0.49134   0.25023   0.36724   1.000
    C36     C    0.94741   0.14392   0.78318   1.000
    C37     C    0.94255   0.08707   0.76930   1.000
    C38     C    0.98945   0.05182   0.82966   1.000
    C39     C    0.04426   0.07526   0.90051   1.000
    C40     C    0.04517   0.13263   0.91185   1.000
    C41     C    0.89457   0.06750   0.68505   1.000
    C42     C    0.10406   0.03866   0.96090   1.000
    C43     C    0.04320   0.36091   0.93126   1.000
    C44     C    0.05136   0.41854   0.93249   1.000
    C45     C    0.99179   0.44965   0.87389   1.000
    C46     C    0.92838   0.42144   0.81370   1.000
    C47     C    0.92545   0.36380   0.81492   1.000
    C48     C    0.13484   0.44201   0.98905   1.000
    C49     C    0.86911   0.45141   0.74320   1.000
    C50     C    0.04938   0.85660   0.28269   1.000
    C51     C    0.05390   0.91341   0.26852   1.000
    C52     C    0.00626   0.94873   0.32810   1.000
    C53     C    0.95128   0.92539   0.39878   1.000
    C54     C    0.95073   0.86806   0.41045   1.000
    C55     C    0.10287   0.93277   0.18485   1.000
    C56     C    0.89174   0.96223   0.45891   1.000
    C57     C    0.95347   0.64008   0.43050   1.000
    C58     C    0.94475   0.58248   0.43203   1.000
    C59     C    0.00000   0.55107   0.37375   1.000
    C60     C    0.06771   0.57898   0.31363   1.000
    C61     C    0.07125   0.63662   0.31471   1.000
    C62     C    0.86066   0.55973   0.48851   1.000
    C63     C    0.12646   0.54869   0.24310   1.000
    C64     C    0.55176   0.64472   0.78838   1.000
    C65     C    0.55641   0.58788   0.77502   1.000
    C66     C    0.50896   0.55258   0.83518   1.000
    C67     C    0.45393   0.57595   0.90541   1.000
    C68     C    0.45317   0.63336   0.91631   1.000
    C69     C    0.60502   0.56822   0.69159   1.000
    C70     C    0.39395   0.53905   0.96554   1.000
    C71     C    0.45573   0.86200   0.93107   1.000
    C72     C    0.44722   0.91957   0.93050   1.000
    C73     C    0.50651   0.95044   0.87110   1.000
    C74     C    0.57000   0.92202   0.81188   1.000
    C75     C    0.57327   0.86444   0.81494   1.000
    C76     C    0.36334   0.94280   0.98622   1.000
    C77     C    0.62842   0.95159   0.74000   1.000
    C78     C    0.44699   0.35674   0.28707   1.000
    C79     C    0.44055   0.41362   0.27468   1.000
    C80     C    0.48618   0.44894   0.33610   1.000
    C81     C    0.54143   0.42565   0.40650   1.000
    C82     C    0.54401   0.36821   0.41632   1.000
    C83     C    0.39228   0.43345   0.19094   1.000
    C84     C    0.60021   0.46273   0.46766   1.000
    C85     C    0.54458   0.13920   0.42989   1.000
    C86     C    0.55177   0.08156   0.43001   1.000
    C87     C    0.49174   0.05077   0.37068   1.000
    C88     C    0.42901   0.07928   0.31082   1.000
    C89     C    0.42712   0.13691   0.31319   1.000
    C90     C    0.63431   0.05770   0.48668   1.000
    C91     C    0.36932   0.04975   0.23952   1.000
    C92     C    0.99565   0.16631   0.85424   1.000
    C93     C    0.98170   0.33413   0.87350   1.000
    C94     C    0.00000   0.83433   0.35330   1.000
    C95     C    0.00000   0.66655   0.37294   1.000
    C96     C    0.50306   0.66708   0.85876   1.000
    C97     C    0.51726   0.83506   0.87429   1.000
    C98     C    0.49563   0.33438   0.35767   1.000
    C99     C    0.48359   0.16626   0.37250   1.000
    C100    C    0.01133   0.26003   0.71172   1.000
    C101    C    0.97544   0.24227   0.02047   1.000
    C102    C    0.98656   0.74048   0.21080   1.000
    C103    C    0.02063   0.75871   0.51986   1.000
    C104    C    0.48698   0.75937   0.71427   1.000
    C105    C    0.52341   0.74444   0.02349   1.000
    C106    C    0.51391   0.24215   0.21280   1.000
    C107    C    0.47602   0.25666   0.52186   1.000
    C108    C    0.90651   0.10137   0.61960   1.000
    C109    C    0.84943   0.02122   0.67985   1.000
    C110    C    0.09271   0.98642   0.94526   1.000
    C111    C    0.16069   0.05969   0.02010   1.000
    C112    C    0.20745   0.40718   0.00390   1.000
    C113    C    0.13425   0.49140   0.00000   1.000
    C114    C    0.87580   0.50274   0.73449   1.000
    C115    C    0.81287   0.42092   0.69090   1.000
    C116    C    0.09345   0.89840   0.11972   1.000
    C117    C    0.14663   0.97944   0.17980   1.000
    C118    C    0.90253   0.01438   0.44199   1.000
    C119    C    0.83621   0.94174   0.51912   1.000
    C120    C    0.78737   0.59468   0.49978   1.000
    C121    C    0.86160   0.51114   0.51923   1.000
    C122    C    0.11933   0.49748   0.23439   1.000
    C123    C    0.18255   0.57930   0.19095   1.000
    C124    C    0.59549   0.60216   0.62608   1.000
    C125    C    0.64832   0.52169   0.68760   1.000
    C126    C    0.40485   0.48690   0.94944   1.000
    C127    C    0.33774   0.55968   0.02480   1.000
    C128    C    0.29022   0.90767   0.99985   1.000
    C129    C    0.36417   0.99208   0.00000   1.000
    C130    C    0.62180   0.00273   0.73017   1.000
    C131    C    0.68341   0.92070   0.68796   1.000
    C132    C    0.40438   0.40021   0.12476   1.000
    C133    C    0.34682   0.47937   0.18722   1.000
    C134    C    0.58659   0.51484   0.45288   1.000
    C135    C    0.65807   0.44239   0.52619   1.000
    C136    C    0.70719   0.09241   0.50380   1.000
    C137    C    0.63255   0.00000   0.51239   1.000
    C138    C    0.37393   0.99841   0.23040   1.000
    C139    C    0.31509   0.08075   0.18696   1.000
    O140    O    0.12430   0.91561   0.05986   1.000
    O141    O    0.12393   0.95962   0.97263   1.000
    O142    O    0.22269   0.92024   0.99993   1.000
    O143    O    0.27503   0.42007   0.00195   1.000
    O144    O    0.37350   0.41658   0.06238   1.000
    O145    O    0.37374   0.45993   0.97472   1.000
    O146    O    0.18466   0.50721   0.05518   1.000
    O147    O    0.13455   0.46671   0.99453   1.000
    O148    O    0.31335   0.00769   0.05331   1.000
    O149    O    0.36376   0.96744   0.99311   1.000
    O150    O    0.17114   0.42460   0.99648   1.000
    O151    O    0.21161   0.04150   0.06336   1.000
    O152    O    0.13237   0.04918   0.99050   1.000
    O153    O    0.98264   0.24628   0.94323   1.000
    O154    O    0.51617   0.74779   0.94617   1.000
    O155    O    0.28641   0.54135   0.06758   1.000
    O156    O    0.36585   0.54936   0.99517   1.000
    O157    O    0.20459   0.00137   0.14321   1.000
    O158    O    0.28881   0.05203   0.14679   1.000
    O159    O    0.29095   0.50120   0.14879   1.000
    O160    O    0.20881   0.55116   0.15065   1.000
    O161    O    0.09816   0.91559   0.15229   1.000
    O162    O    0.39833   0.41683   0.15785   1.000
    O163    O    0.12475   0.95611   0.18233   1.000
    O164    O    0.07839   0.92309   0.22669   1.000
    O165    O    0.34220   0.06525   0.21324   1.000
    O166    O    0.36955   0.45641   0.18908   1.000
    O167    O    0.41642   0.42353   0.23281   1.000
    O168    O    0.15450   0.56400   0.21703   1.000
    O169    O    0.99328   0.74543   0.28803   1.000
    O170    O    0.50262   0.24619   0.29002   1.000
    O171    O    0.37162   0.02408   0.23496   1.000
    O172    O    0.12289   0.52309   0.23875   1.000
    O173    O    0.06639   0.84209   0.25954   1.000
    O174    O    0.43080   0.34223   0.26324   1.000
    O175    O    0.39917   0.06452   0.27517   1.000
    O176    O    0.09708   0.56384   0.27837   1.000
    O177    O    0.40467   0.14863   0.28944   1.000
    O178    O    0.09408   0.64808   0.29084   1.000
    O179    O    0.05164   0.88500   0.27561   1.000
    O180    O    0.03008   0.93107   0.29831   1.000
    O181    O    0.44377   0.38518   0.28088   1.000
    O182    O    0.46337   0.43128   0.30539   1.000
    O183    O    0.02469   0.84546   0.31800   1.000
    O184    O    0.47131   0.34556   0.32237   1.000
    O185    O    0.42807   0.10809   0.31201   1.000
    O186    O    0.46038   0.06503   0.34075   1.000
    O187    O    0.45536   0.15158   0.34285   1.000
    O188    O    0.06948   0.60780   0.31417   1.000
    O189    O    0.03385   0.56503   0.34369   1.000
    O190    O    0.03562   0.65158   0.34383   1.000
    O191    O    0.00742   0.97100   0.32347   1.000
    O192    O    0.97877   0.93706   0.36344   1.000
    O193    O    0.48427   0.47124   0.33210   1.000
    O194    O    0.51381   0.43730   0.37130   1.000
    O195    O    0.00000   0.79236   0.35928   1.000
    O196    O    0.97536   0.85119   0.38188   1.000
    O197    O    0.49348   0.29231   0.36246   1.000
    O198    O    0.51982   0.35130   0.38700   1.000
    O199    O    0.00000   0.70847   0.36910   1.000
    O200    O    0.01031   0.75455   0.44256   1.000
    O201    O    0.48747   0.20824   0.36987   1.000
    O202    O    0.48368   0.25345   0.44455   1.000
    O203    O    0.49375   0.02539   0.36939   1.000
    O204    O    0.52175   0.06617   0.40035   1.000
    O205    O    0.99935   0.52860   0.37282   1.000
    O206    O    0.51409   0.15273   0.40120   1.000
    O207    O    0.97673   0.65332   0.40172   1.000
    O208    O    0.97238   0.56678   0.40289   1.000
    O209    O    0.95100   0.89672   0.40462   1.000
    O210    O    0.92151   0.94381   0.42885   1.000
    O211    O    0.54272   0.39693   0.41141   1.000
    O212    O    0.57082   0.44419   0.43708   1.000
    O213    O    0.93112   0.85815   0.43809   1.000
    O214    O    0.56381   0.35830   0.44381   1.000
    O215    O    0.54817   0.11038   0.42995   1.000
    O216    O    0.56657   0.15194   0.45279   1.000
    O217    O    0.59304   0.06963   0.45835   1.000
    O218    O    0.94911   0.61128   0.43127   1.000
    O219    O    0.93168   0.65308   0.45288   1.000
    O220    O    0.90270   0.57110   0.46027   1.000
    O221    O    0.89713   0.98830   0.45045   1.000
    O222    O    0.87313   0.04087   0.48052   1.000
    O223    O    0.59340   0.48879   0.46027   1.000
    O224    O    0.61989   0.54201   0.48808   1.000
    O225    O    0.86398   0.95199   0.48902   1.000
    O226    O    0.62914   0.45256   0.49693   1.000
    O227    O    0.67075   0.07506   0.49524   1.000
    O228    O    0.63343   0.02885   0.49954   1.000
    O229    O    0.82401   0.57720   0.49415   1.000
    O230    O    0.86113   0.53543   0.50387   1.000
    O231    O    0.72028   0.58192   0.51153   1.000
    O232    O    0.77546   0.07988   0.51143   1.000
    O233    O    0.68298   0.98856   0.55905   1.000
    O234    O    0.87512   0.08437   0.56933   1.000
    O235    O    0.78481   0.95943   0.56242   1.000
    O236    O    0.81109   0.49517   0.56607   1.000
    O237    O    0.62434   0.58567   0.57468   1.000
    O238    O    0.70933   0.46080   0.56955   1.000
    O239    O    0.79142   0.99917   0.64278   1.000
    O240    O    0.70841   0.94891   0.64684   1.000
    O241    O    0.70445   0.50045   0.65025   1.000
    O242    O    0.78673   0.45007   0.65190   1.000
    O243    O    0.90054   0.08444   0.65233   1.000
    O244    O    0.60025   0.58519   0.65884   1.000
    O245    O    0.87200   0.04436   0.68245   1.000
    O246    O    0.91856   0.07728   0.72718   1.000
    O247    O    0.62667   0.54495   0.68960   1.000
    O248    O    0.65591   0.93615   0.71398   1.000
    O249    O    0.84099   0.43617   0.71705   1.000
    O250    O    0.58071   0.57805   0.73331   1.000
    O251    O    0.00059   0.25516   0.78885   1.000
    O252    O    0.49795   0.75525   0.79156   1.000
    O253    O    0.62511   0.97716   0.73509   1.000
    O254    O    0.87245   0.47708   0.73885   1.000
    O255    O    0.93074   0.15841   0.75977   1.000
    O256    O    0.59921   0.93680   0.77594   1.000
    O257    O    0.56870   0.65920   0.76500   1.000
    O258    O    0.89875   0.43642   0.77845   1.000
    O259    O    0.90272   0.35222   0.79098   1.000
    O260    O    0.59598   0.85276   0.79141   1.000
    O261    O    0.94498   0.11549   0.77624   1.000
    O262    O    0.96600   0.06944   0.79948   1.000
    O263    O    0.55409   0.61630   0.78170   1.000
    O264    O    0.53268   0.57023   0.80510   1.000
    O265    O    0.97153   0.15511   0.81871   1.000
    O266    O    0.52741   0.65590   0.82357   1.000
    O267    O    0.57164   0.89323   0.81341   1.000
    O268    O    0.53826   0.93623   0.84149   1.000
    O269    O    0.92691   0.39262   0.81431   1.000
    O270    O    0.96009   0.43554   0.84380   1.000
    O271    O    0.95357   0.34897   0.84421   1.000
    O272    O    0.54527   0.84975   0.84462   1.000
    O273    O    0.98818   0.02953   0.82512   1.000
    O274    O    0.51014   0.53029   0.83079   1.000
    O275    O    0.01686   0.06354   0.86509   1.000
    O276    O    0.48144   0.56427   0.87030   1.000
    O277    O    0.99275   0.20830   0.86011   1.000
    O278    O    0.02041   0.14947   0.88305   1.000
    O279    O    0.50599   0.70910   0.86380   1.000
    O280    O    0.47812   0.65022   0.88754   1.000
    O281    O    0.98577   0.29221   0.86974   1.000
    O282    O    0.50391   0.97288   0.86940   1.000
    O283    O    0.51309   0.79309   0.87157   1.000
    O284    O    0.47687   0.93501   0.90080   1.000
    O285    O    0.99424   0.47212   0.87294   1.000
    O286    O    0.01245   0.34752   0.90238   1.000
    O287    O    0.02158   0.43410   0.90319   1.000
    O288    O    0.48650   0.84853   0.90268   1.000
    O289    O    0.04472   0.10395   0.90618   1.000
    O290    O    0.07416   0.05696   0.93071   1.000
    O291    O    0.45355   0.60466   0.91086   1.000
    O292    O    0.42394   0.55750   0.93548   1.000
    O293    O    0.06476   0.14258   0.93957   1.000
    O294    O    0.43350   0.64329   0.94376   1.000
    O295    O    0.45148   0.89078   0.93079   1.000
    O296    O    0.40528   0.93118   0.95836   1.000
    O297    O    0.43394   0.84920   0.95394   1.000
    O298    O    0.04728   0.38972   0.93188   1.000
    O299    O    0.06506   0.34804   0.95385   1.000
    O300    O    0.09310   0.43028   0.96077   1.000
    O301    O    0.09838   0.01254   0.95308   1.000
    O302    O    0.39940   0.51297   0.95749   1.000
    O303    O    0.32678   0.92523   0.99304   1.000
loop_
    _geom_bond_atom_site_label_1
    _geom_bond_atom_site_label_2
    _geom_bond_distance
    _geom_bond_site_symmetry_2
    _ccdc_geom_bond_type
    C2     O140      1.07104      .   S
    C116   O140      1.07104      .   S
    C2     O141      0.87152  1_554   S
    C110   O141      0.87152      .   S
    C2     O142      0.93541  1_554   S
    C128   O142      0.93541      .   S
    C6     O143      0.93567      .   S
    C112   O143      0.93567      .   S
    C6     O144      1.09592      .   S
    C132   O144      1.09592      .   S
    C6     O145      0.85685  1_554   S
    C126   O145      0.85685      .   S
    C113   O146      1.12403      .   S
    C7     O146      1.12403      .   S
    C113   O147      0.60349  1_554   S
    C48    O147      0.60349      .   S
    C129   O148      1.10993  1_565   S
    C3     O148      1.10993      .   S
    C129   O149      0.60546  1_554   S
    C76    O149      0.60546      .   S
    C112   O150      0.64619  1_554   S
    C48    O150      0.64619      .   S
    C111   O151      1.03055      .   S
    C3     O151      1.03055      .   S
    C111   O152      0.63083  1_554   S
    C42    O152      0.63083      .   S
    C101   O153      1.16998  1_554   S
    C32    O153      1.16998      .   S
    C105   O154      1.16964  1_554   S
    C34    O154      1.16964      .   S
    C127   O155      1.02955      .   S
    C7     O155      1.02955      .   S
    C127   O156      0.63058  1_554   S
    C70    O156      0.63058      .   S
    C3     O157      1.07528      .   S
    C117   O157      1.07528  1_565   S
    C3     O158      0.98102      .   S
    C139   O158      0.98102      .   S
    C7     O159      1.07219      .   S
    C133   O159      1.07219      .   S
    C7     O160      0.97604      .   S
    C123   O160      0.97604      .   S
    C116   O161      0.64509      .   S
    C55    O161      0.64509      .   S
    C132   O162      0.64516      .   S
    C83    O162      0.64516      .   S
    C117   O163      0.63287      .   S
    C55    O163      0.63287      .   S
    C55    O164      0.74403      .   S
    C51    O164      0.74403      .   S
    C139   O165      0.65093      .   S
    C91    O165      0.65093      .   S
    C133   O166      0.63242      .   S
    C83    O166      0.63242      .   S
    C83    O167      0.74421      .   S
    C79    O167      0.74421      .   S
    C123   O168      0.65174      .   S
    C63    O168      0.65174      .   S
    C102   O169      1.17077      .   S
    C33    O169      1.17077  1_455   S
    C106   O170      1.17532      .   S
    C35    O170      1.17532      .   S
    C138   O171      0.62612  1_565   S
    C91    O171      0.62612      .   S
    C122   O172      0.62474      .   S
    C63    O172      0.62474      .   S
    C14    O173      0.54338      .   S
    C50    O173      0.54338      .   S
    C26    O174      0.54343      .   S
    C78    O174      0.54343      .   S
    C91    O175      0.75142      .   S
    C88    O175      0.75142      .   S
    C63    O176      0.75204      .   S
    C60    O176      0.75204      .   S
    C31    O177      0.54297      .   S
    C89    O177      0.54297      .   S
    C19    O178      0.54293      .   S
    C61    O178      0.54293      .   S
    C51    O179      0.69636      .   S
    C50    O179      0.69636      .   S
    C51    O180      0.69464      .   S
    C52    O180      0.69464      .   S
    C79    O181      0.69642      .   S
    C78    O181      0.69642      .   S
    C79    O182      0.69478      .   S
    C80    O182      0.69478      .   S
    C50    O183      0.67737      .   S
    C94    O183      0.67737      .   S
    C78    O184      0.67569      .   S
    C98    O184      0.67569      .   S
    C88    O185      0.69797      .   S
    C89    O185      0.69797      .   S
    C88    O186      0.70052      .   S
    C87    O186      0.70052      .   S
    C89    O187      0.67739      .   S
    C99    O187      0.67739      .   S
    C60    O188      0.69796      .   S
    C61    O188      0.69796      .   S
    C60    O189      0.71674      .   S
    C59    O189      0.71674      .   S
    C61    O190      0.73665      .   S
    C95    O190      0.73665      .   S
    C15    O191      0.54393      .   S
    C52    O191      0.54393      .   S
    C52    O192      0.70094  1_455   S
    C53    O192      0.70094      .   S
    C27    O193      0.54402      .   S
    C80    O193      0.54402      .   S
    C80    O194      0.70045      .   S
    C81    O194      0.70045      .   S
    C94    O195      1.01997      .   S
    C33    O195      1.01997      .   S
    C94    O196      0.67613  1_455   S
    C54    O196      0.67613      .   S
    C98    O197      1.02141      .   S
    C35    O197      1.02141      .   S
    C98    O198      0.67811      .   S
    C82    O198      0.67811      .   S
    C33    O199      1.01653      .   S
    C95    O199      1.01653      .   S
    C33    O200      1.17449      .   S
    C103   O200      1.17449      .   S
    C35    O201      1.01823      .   S
    C99    O201      1.01823      .   S
    C35    O202      1.17002      .   S
    C107   O202      1.17002      .   S
    C30    O203      0.61560      .   S
    C87    O203      0.61560      .   S
    C87    O204      0.69941      .   S
    C86    O204      0.69941      .   S
    C18    O205      0.54416      .   S
    C59    O205      0.54416  1_455   S
    C99    O206      0.67327      .   S
    C85    O206      0.67327      .   S
    C95    O207      0.61820  1_455   S
    C57    O207      0.61820      .   S
    C59    O208      0.68498  1_455   S
    C58    O208      0.68498      .   S
    C53    O209      0.69959      .   S
    C54    O209      0.69959      .   S
    C53    O210      0.74660      .   S
    C56    O210      0.74660      .   S
    C81    O211      0.69952      .   S
    C82    O211      0.69952      .   S
    C81    O212      0.74662      .   S
    C84    O212      0.74662      .   S
    C54    O213      0.54399      .   S
    C16    O213      0.54399      .   S
    C82    O214      0.54399      .   S
    C28    O214      0.54399      .   S
    C85    O215      0.69949      .   S
    C86    O215      0.69949      .   S
    C85    O216      0.54302      .   S
    C29    O216      0.54302      .   S
    C86    O217      0.74622      .   S
    C90    O217      0.74622      .   S
    C57    O218      0.69935      .   S
    C58    O218      0.69935      .   S
    C57    O219      0.54297      .   S
    C17    O219      0.54297      .   S
    C58    O220      0.74686      .   S
    C62    O220      0.74686      .   S
    C118   O221      0.64743  1_545   S
    C56    O221      0.64743      .   S
    C118   O222      0.94781      .   S
    C0     O222      0.94781      .   S
    C134   O223      0.64721      .   S
    C84    O223      0.64721      .   S
    C134   O224      0.94726      .   S
    C4     O224      0.94726      .   S
    C56    O225      0.63097      .   S
    C119   O225      0.63097      .   S
    C84    O226      0.63074      .   S
    C135   O226      0.63074      .   S
    C90    O227      0.64594      .   S
    C136   O227      0.64594      .   S
    C90    O228      0.72490      .   S
    C137   O228      0.72490      .   S
    C62    O229      0.64660      .   S
    C120   O229      0.64660      .   S
    C62    O230      0.63204      .   S
    C121   O230      0.63204      .   S
    C120   O231      0.94497      .   S
    C4     O231      0.94497      .   S
    C136   O232      0.95078      .   S
    C0     O232      0.95078      .   S
    C137   O233      1.00197  1_545   S
    C1     O233      1.00197      .   S
    C0     O234      0.95182      .   S
    C108   O234      0.95182      .   S
    C119   O235      1.03148      .   S
    C1     O235      1.03148      .   S
    C121   O236      1.03971      .   S
    C5     O236      1.03971      .   S
    C4     O237      0.94990      .   S
    C124   O237      0.94990      .   S
    C135   O238      1.03289      .   S
    C5     O238      1.03289      .   S
    C1     O239      1.07875      .   S
    C109   O239      1.07875  1_545   S
    C1     O240      0.97700      .   S
    C131   O240      0.97700      .   S
    C5     O241      1.06034      .   S
    C125   O241      1.06034      .   S
    C5     O242      0.98030      .   S
    C115   O242      0.98030      .   S
    C108   O243      0.64542      .   S
    C41    O243      0.64542      .   S
    C124   O244      0.64485      .   S
    C69    O244      0.64485      .   S
    C109   O245      0.63268      .   S
    C41    O245      0.63268      .   S
    C41    O246      0.74427      .   S
    C37    O246      0.74427      .   S
    C125   O247      0.63251      .   S
    C69    O247      0.63251      .   S
    C131   O248      0.65128      .   S
    C77    O248      0.65128      .   S
    C115   O249      0.65080      .   S
    C49    O249      0.65080      .   S
    C69    O250      0.74357      .   S
    C65    O250      0.74357      .   S
    C100   O251      1.17492      .   S
    C32    O251      1.17492  1_655   S
    C104   O252      1.17537      .   S
    C34    O252      1.17537      .   S
    C130   O253      0.62524  1_545   S
    C77    O253      0.62524      .   S
    C114   O254      0.62609      .   S
    C49    O254      0.62609      .   S
    C8     O255      0.54342      .   S
    C36    O255      0.54342      .   S
    C77    O256      0.75214      .   S
    C74    O256      0.75214      .   S
    C20    O257      0.54336      .   S
    C64    O257      0.54336      .   S
    C49    O258      0.75081      .   S
    C46    O258      0.75081      .   S
    C13    O259      0.54299      .   S
    C47    O259      0.54299      .   S
    C25    O260      0.54298      .   S
    C75    O260      0.54298      .   S
    C37    O261      0.69648      .   S
    C36    O261      0.69648      .   S
    C37    O262      0.69508      .   S
    C38    O262      0.69508      .   S
    C65    O263      0.69614      .   S
    C64    O263      0.69614      .   S
    C65    O264      0.69480      .   S
    C66    O264      0.69480      .   S
    C36    O265      0.67565      .   S
    C92    O265      0.67565      .   S
    C64    O266      0.67557      .   S
    C96    O266      0.67557      .   S
    C74    O267      0.69776      .   S
    C75    O267      0.69776      .   S
    C74    O268      0.70091      .   S
    C73    O268      0.70091      .   S
    C46    O269      0.69791      .   S
    C47    O269      0.69791      .   S
    C46    O270      0.70039      .   S
    C45    O270      0.70039      .   S
    C47    O271      0.67761      .   S
    C93    O271      0.67761      .   S
    C75    O272      0.67761      .   S
    C97    O272      0.67761      .   S
    C9     O273      0.54402      .   S
    C38    O273      0.54402      .   S
    C21    O274      0.54398      .   S
    C66    O274      0.54398      .   S
    C38    O275      0.70035  1_655   S
    C39    O275      0.70035      .   S
    C66    O276      0.70022      .   S
    C67    O276      0.70022      .   S
    C92    O277      1.02123      .   S
    C32    O277      1.02123      .   S
    C92    O278      0.67800  1_655   S
    C40    O278      0.67800      .   S
    C96    O279      1.02061      .   S
    C34    O279      1.02061      .   S
    C96    O280      0.67793      .   S
    C68    O280      0.67793      .   S
    C32    O281      1.01819      .   S
    C93    O281      1.01819      .   S
    C24    O282      0.54507      .   S
    C73    O282      0.54507      .   S
    C34    O283      1.01786      .   S
    C97    O283      1.01786      .   S
    C73    O284      0.69906      .   S
    C72    O284      0.69906      .   S
    C12    O285      0.54501      .   S
    C45    O285      0.54501      .   S
    C93    O286      0.67286  1_655   S
    C43    O286      0.67286      .   S
    C45    O287      0.69907  1_655   S
    C44    O287      0.69907      .   S
    C97    O288      0.67274      .   S
    C71    O288      0.67274      .   S
    C39    O289      0.69958      .   S
    C40    O289      0.69958      .   S
    C39    O290      0.74614      .   S
    C42    O290      0.74614      .   S
    C67    O291      0.69965      .   S
    C68    O291      0.69965      .   S
    C67    O292      0.74614      .   S
    C70    O292      0.74614      .   S
    C40    O293      0.54401      .   S
    C10    O293      0.54401      .   S
    C68    O294      0.54365      .   S
    C22    O294      0.54365      .   S
    C72    O295      0.69947      .   S
    C71    O295      0.69947      .   S
    C72    O296      0.74693      .   S
    C76    O296      0.74693      .   S
    C71    O297      0.54301      .   S
    C23    O297      0.54301      .   S
    C43    O298      0.69943      .   S
    C44    O298      0.69943      .   S
    C43    O299      0.54297      .   S
    C11    O299      0.54297      .   S
    C44    O300      0.74581      .   S
    C48    O300      0.74581      .   S
    C110   O301      0.64698  1_565   S
    C42    O301      0.64698      .   S
    C126   O302      0.64706      .   S
    C70    O302      0.64706      .   S
    C76    O303      0.64618      .   S
    C128   O303      0.64618      .   S
