# CIF file generated by openbabel 2.4.90, see http://openbabel.sf.net
data_I
_chemical_name_common ''
_cell_length_a 13.07
_cell_length_b 24.209
_cell_length_c 15.042
_cell_angle_alpha 90.033
_cell_angle_beta 90.136
_cell_angle_gamma 90.336
_space_group_name_H-M_alt 'P 1'
_space_group_name_Hall 'P 1'
loop_
    _symmetry_equiv_pos_as_xyz
    x,y,z
loop_
    _atom_site_label
    _atom_site_type_symbol
    _atom_site_fract_x
    _atom_site_fract_y
    _atom_site_fract_z
    _atom_site_occupancy
    Zr0     Zr   0.84373   0.06736   0.51905   1.000
    Zr1     Zr   0.73341   0.97712   0.60571   1.000
    Zr2     Zr   0.15515   0.93282   0.00000   1.000
    Zr3     Zr   0.26254   0.02330   0.10661   1.000
    Zr4     Zr   0.65319   0.56917   0.52327   1.000
    Zr5     Zr   0.76059   0.47921   0.61290   1.000
    Zr6     Zr   0.34262   0.43296   0.00000   1.000
    Zr7     Zr   0.23507   0.52302   0.11035   1.000
    Zr8     Zr   0.98984   0.25028   0.86598   1.000
    Zr9     Zr   0.00000   0.75039   0.36525   1.000
    Zr10    Zr   0.50892   0.75113   0.86884   1.000
    Zr11    Zr   0.49134   0.25023   0.36724   1.000
    Zr12    Zr   0.89457   0.06750   0.68505   1.000
    Zr13    Zr   0.10406   0.03866   0.96090   1.000
    Zr14    Zr   0.13484   0.44201   0.98905   1.000
    Zr15    Zr   0.86911   0.45141   0.74320   1.000
    Zr16    Zr   0.10287   0.93277   0.18485   1.000
    Zr17    Zr   0.89174   0.96223   0.45891   1.000
    Zr18    Zr   0.86066   0.55973   0.48851   1.000
    Zr19    Zr   0.12646   0.54869   0.24310   1.000
    Zr20    Zr   0.60502   0.56822   0.69159   1.000
    Zr21    Zr   0.39395   0.53905   0.96554   1.000
    Zr22    Zr   0.36334   0.94280   0.98622   1.000
    Zr23    Zr   0.62842   0.95159   0.74000   1.000
    Zr24    Zr   0.39228   0.43345   0.19094   1.000
    Zr25    Zr   0.60021   0.46273   0.46766   1.000
    Zr26    Zr   0.63431   0.05770   0.48668   1.000
    Zr27    Zr   0.36932   0.04975   0.23952   1.000
    Zr28    Zr   0.01133   0.26003   0.71172   1.000
    Zr29    Zr   0.97544   0.24227   0.02047   1.000
    Zr30    Zr   0.98656   0.74048   0.21080   1.000
    Zr31    Zr   0.02063   0.75871   0.51986   1.000
    Zr32    Zr   0.48698   0.75937   0.71427   1.000
    Zr33    Zr   0.52341   0.74444   0.02349   1.000
    Zr34    Zr   0.51391   0.24215   0.21280   1.000
    Zr35    Zr   0.47602   0.25666   0.52186   1.000
    Zr36    Zr   0.90651   0.10137   0.61960   1.000
    Zr37    Zr   0.84943   0.02122   0.67985   1.000
    Zr38    Zr   0.09271   0.98642   0.94526   1.000
    Zr39    Zr   0.16069   0.05969   0.02010   1.000
    Zr40    Zr   0.20745   0.40718   0.00390   1.000
    Zr41    Zr   0.13425   0.49140   0.00000   1.000
    Zr42    Zr   0.87580   0.50274   0.73449   1.000
    Zr43    Zr   0.81287   0.42092   0.69090   1.000
    Zr44    Zr   0.09345   0.89840   0.11972   1.000
    Zr45    Zr   0.14663   0.97944   0.17980   1.000
    Zr46    Zr   0.90253   0.01438   0.44199   1.000
    Zr47    Zr   0.83621   0.94174   0.51912   1.000
    Zr48    Zr   0.78737   0.59468   0.49978   1.000
    Zr49    Zr   0.86160   0.51114   0.51923   1.000
    Zr50    Zr   0.11933   0.49748   0.23439   1.000
    Zr51    Zr   0.18255   0.57930   0.19095   1.000
    Zr52    Zr   0.59549   0.60216   0.62608   1.000
    Zr53    Zr   0.64832   0.52169   0.68760   1.000
    Zr54    Zr   0.40485   0.48690   0.94944   1.000
    Zr55    Zr   0.33774   0.55968   0.02480   1.000
    Zr56    Zr   0.29022   0.90767   0.99985   1.000
    Zr57    Zr   0.36417   0.99208   0.00000   1.000
    Zr58    Zr   0.62180   0.00273   0.73017   1.000
    Zr59    Zr   0.68341   0.92070   0.68796   1.000
    Zr60    Zr   0.40438   0.40021   0.12476   1.000
    Zr61    Zr   0.34682   0.47937   0.18722   1.000
    Zr62    Zr   0.58659   0.51484   0.45288   1.000
    Zr63    Zr   0.65807   0.44239   0.52619   1.000
    Zr64    Zr   0.70719   0.09241   0.50380   1.000
    Zr65    Zr   0.63255   0.00000   0.51239   1.000
    Zr66    Zr   0.37393   0.99841   0.23040   1.000
    Zr67    Zr   0.31509   0.08075   0.18696   1.000
    O68     O    0.12430   0.91561   0.05986   1.000
    O69     O    0.12393   0.95962   0.97263   1.000
    O70     O    0.22269   0.92024   0.99993   1.000
    O71     O    0.27503   0.42007   0.00195   1.000
    O72     O    0.37350   0.41658   0.06238   1.000
    O73     O    0.37374   0.45993   0.97472   1.000
    O74     O    0.18466   0.50721   0.05518   1.000
    O75     O    0.13455   0.46671   0.99453   1.000
    O76     O    0.31335   0.00769   0.05331   1.000
    O77     O    0.36376   0.96744   0.99311   1.000
    O78     O    0.17114   0.42460   0.99648   1.000
    O79     O    0.21161   0.04150   0.06336   1.000
    O80     O    0.13237   0.04918   0.99050   1.000
    O81     O    0.98264   0.24628   0.94323   1.000
    O82     O    0.51617   0.74779   0.94617   1.000
    O83     O    0.28641   0.54135   0.06758   1.000
    O84     O    0.36585   0.54936   0.99517   1.000
    O85     O    0.20459   0.00137   0.14321   1.000
    O86     O    0.28881   0.05203   0.14679   1.000
    O87     O    0.29095   0.50120   0.14879   1.000
    O88     O    0.20881   0.55116   0.15065   1.000
    O89     O    0.09816   0.91559   0.15229   1.000
    O90     O    0.39833   0.41683   0.15785   1.000
    O91     O    0.12475   0.95611   0.18233   1.000
    O92     O    0.34220   0.06525   0.21324   1.000
    O93     O    0.36955   0.45641   0.18908   1.000
    O94     O    0.15450   0.56400   0.21703   1.000
    O95     O    0.99328   0.74543   0.28803   1.000
    O96     O    0.50262   0.24619   0.29002   1.000
    O97     O    0.37162   0.02408   0.23496   1.000
    O98     O    0.12289   0.52309   0.23875   1.000
    O99     O    0.01031   0.75455   0.44256   1.000
    O100    O    0.48368   0.25345   0.44455   1.000
    O101    O    0.89713   0.98830   0.45045   1.000
    O102    O    0.87313   0.04087   0.48052   1.000
    O103    O    0.59340   0.48879   0.46027   1.000
    O104    O    0.61989   0.54201   0.48808   1.000
    O105    O    0.86398   0.95199   0.48902   1.000
    O106    O    0.62914   0.45256   0.49693   1.000
    O107    O    0.67075   0.07506   0.49524   1.000
    O108    O    0.63343   0.02885   0.49954   1.000
    O109    O    0.82401   0.57720   0.49415   1.000
    O110    O    0.86113   0.53543   0.50387   1.000
    O111    O    0.72028   0.58192   0.51153   1.000
    O112    O    0.77546   0.07988   0.51143   1.000
    O113    O    0.68298   0.98856   0.55905   1.000
    O114    O    0.87512   0.08437   0.56933   1.000
    O115    O    0.78481   0.95943   0.56242   1.000
    O116    O    0.81109   0.49517   0.56607   1.000
    O117    O    0.62434   0.58567   0.57468   1.000
    O118    O    0.70933   0.46080   0.56955   1.000
    O119    O    0.79142   0.99917   0.64278   1.000
    O120    O    0.70841   0.94891   0.64684   1.000
    O121    O    0.70445   0.50045   0.65025   1.000
    O122    O    0.78673   0.45007   0.65190   1.000
    O123    O    0.90054   0.08444   0.65233   1.000
    O124    O    0.60025   0.58519   0.65884   1.000
    O125    O    0.87200   0.04436   0.68245   1.000
    O126    O    0.62667   0.54495   0.68960   1.000
    O127    O    0.65591   0.93615   0.71398   1.000
    O128    O    0.84099   0.43617   0.71705   1.000
    O129    O    0.00059   0.25516   0.78885   1.000
    O130    O    0.49795   0.75525   0.79156   1.000
    O131    O    0.62511   0.97716   0.73509   1.000
    O132    O    0.87245   0.47708   0.73885   1.000
    O133    O    0.09838   0.01254   0.95308   1.000
    O134    O    0.39940   0.51297   0.95749   1.000
    O135    O    0.32678   0.92523   0.99304   1.000
    N136    N    0.50423   0.61072   0.84648   1.000
    O137    O    0.46408   0.58411   0.89098   1.000
    O138    O    0.54247   0.59438   0.78989   1.000
    O139    O    0.50511   0.65991   0.85514   1.000
    N140    N    0.98727   0.39099   0.87280   1.000
    O141    O    0.04019   0.41063   0.91679   1.000
    O142    O    0.94301   0.41370   0.82563   1.000
    O143    O    0.98652   0.34160   0.87127   1.000
    N144    N    0.00167   0.89062   0.34031   1.000
    O145    O    0.04003   0.90686   0.28350   1.000
    O146    O    0.96159   0.91722   0.38458   1.000
    O147    O    0.00084   0.84149   0.34979   1.000
    N148    N    0.51135   0.89181   0.87179   1.000
    O149    O    0.45832   0.91150   0.91508   1.000
    O150    O    0.51222   0.84245   0.87168   1.000
    O151    O    0.55528   0.91431   0.82387   1.000
    N152    N    0.49282   0.39080   0.34635   1.000
    O153    O    0.49315   0.34155   0.35440   1.000
    O154    O    0.53182   0.41750   0.39171   1.000
    O155    O    0.45462   0.40717   0.28958   1.000
    N156    N    0.48826   0.10878   0.37073   1.000
    O157    O    0.54065   0.08921   0.41454   1.000
    O158    O    0.48786   0.15851   0.37030   1.000
    O159    O    0.44372   0.08665   0.32295   1.000
    N160    N    0.00696   0.60973   0.37241   1.000
    O161    O    0.95483   0.59042   0.41634   1.000
    O162    O    0.05202   0.58678   0.32539   1.000
    O163    O    0.00348   0.65910   0.37075   1.000
    N164    N    0.99443   0.10996   0.84144   1.000
    O165    O    0.99359   0.15913   0.85077   1.000
    O166    O    0.03429   0.08346   0.88607   1.000
    O167    O    0.95649   0.09362   0.78431   1.000
loop_
    _geom_bond_atom_site_label_1
    _geom_bond_atom_site_label_2
    _geom_bond_distance
    _geom_bond_site_symmetry_2
    _ccdc_geom_bond_type
    Zr2    O68       1.07104      .   S
    Zr44   O68       1.07104      .   S
    Zr2    O69       0.87152  1_554   S
    Zr38   O69       0.87152      .   S
    Zr2    O70       0.93541  1_554   S
    Zr56   O70       0.93541      .   S
    Zr6    O71       0.93567      .   S
    Zr40   O71       0.93567      .   S
    Zr6    O72       1.09592      .   S
    Zr60   O72       1.09592      .   S
    Zr6    O73       0.85685  1_554   S
    Zr54   O73       0.85685      .   S
    Zr41   O74       1.12403      .   S
    Zr7    O74       1.12403      .   S
    Zr41   O75       0.60349  1_554   S
    Zr14   O75       0.60349      .   S
    Zr57   O76       1.10993  1_565   S
    Zr3    O76       1.10993      .   S
    Zr57   O77       0.60546  1_554   S
    Zr22   O77       0.60546      .   S
    Zr40   O78       0.64619  1_554   S
    Zr14   O78       0.64619      .   S
    Zr39   O79       1.03055      .   S
    Zr3    O79       1.03055      .   S
    Zr39   O80       0.63083  1_554   S
    Zr13   O80       0.63083      .   S
    Zr29   O81       1.16998  1_554   S
    Zr8    O81       1.16998      .   S
    Zr33   O82       1.16964  1_554   S
    Zr10   O82       1.16964      .   S
    Zr55   O83       1.02955      .   S
    Zr7    O83       1.02955      .   S
    Zr55   O84       0.63058  1_554   S
    Zr21   O84       0.63058      .   S
    Zr3    O85       1.07528      .   S
    Zr45   O85       1.07528  1_565   S
    Zr3    O86       0.98102      .   S
    Zr67   O86       0.98102      .   S
    Zr7    O87       1.07219      .   S
    Zr61   O87       1.07219      .   S
    Zr7    O88       0.97604      .   S
    Zr51   O88       0.97604      .   S
    Zr44   O89       0.64509      .   S
    Zr16   O89       0.64509      .   S
    Zr60   O90       0.64516      .   S
    Zr24   O90       0.64516      .   S
    Zr45   O91       0.63287      .   S
    Zr16   O91       0.63287      .   S
    Zr67   O92       0.65093      .   S
    Zr27   O92       0.65093      .   S
    Zr61   O93       0.63242      .   S
    Zr24   O93       0.63242      .   S
    Zr51   O94       0.65174      .   S
    Zr19   O94       0.65174      .   S
    Zr30   O95       1.17077      .   S
    Zr9    O95       1.17077  1_455   S
    Zr34   O96       1.17532      .   S
    Zr11   O96       1.17532      .   S
    Zr66   O97       0.62612  1_565   S
    Zr27   O97       0.62612      .   S
    Zr50   O98       0.62474      .   S
    Zr19   O98       0.62474      .   S
    Zr9    O99       1.17449      .   S
    Zr31   O99       1.17449      .   S
    Zr11   O100      1.17002      .   S
    Zr35   O100      1.17002      .   S
    Zr46   O101      0.64743  1_545   S
    Zr17   O101      0.64743      .   S
    Zr46   O102      0.94781      .   S
    Zr0    O102      0.94781      .   S
    Zr62   O103      0.64721      .   S
    Zr25   O103      0.64721      .   S
    Zr62   O104      0.94726      .   S
    Zr4    O104      0.94726      .   S
    Zr17   O105      0.63097      .   S
    Zr47   O105      0.63097      .   S
    Zr25   O106      0.63074      .   S
    Zr63   O106      0.63074      .   S
    Zr26   O107      0.64594      .   S
    Zr64   O107      0.64594      .   S
    Zr26   O108      0.72490      .   S
    Zr65   O108      0.72490      .   S
    Zr18   O109      0.64660      .   S
    Zr48   O109      0.64660      .   S
    Zr18   O110      0.63204      .   S
    Zr49   O110      0.63204      .   S
    Zr48   O111      0.94497      .   S
    Zr4    O111      0.94497      .   S
    Zr64   O112      0.95078      .   S
    Zr0    O112      0.95078      .   S
    Zr65   O113      1.00197  1_545   S
    Zr1    O113      1.00197      .   S
    Zr0    O114      0.95182      .   S
    Zr36   O114      0.95182      .   S
    Zr47   O115      1.03148      .   S
    Zr1    O115      1.03148      .   S
    Zr49   O116      1.03971      .   S
    Zr5    O116      1.03971      .   S
    Zr4    O117      0.94990      .   S
    Zr52   O117      0.94990      .   S
    Zr63   O118      1.03289      .   S
    Zr5    O118      1.03289      .   S
    Zr1    O119      1.07875      .   S
    Zr37   O119      1.07875  1_545   S
    Zr1    O120      0.97700      .   S
    Zr59   O120      0.97700      .   S
    Zr5    O121      1.06034      .   S
    Zr53   O121      1.06034      .   S
    Zr5    O122      0.98030      .   S
    Zr43   O122      0.98030      .   S
    Zr36   O123      0.64542      .   S
    Zr12   O123      0.64542      .   S
    Zr52   O124      0.64485      .   S
    Zr20   O124      0.64485      .   S
    Zr37   O125      0.63268      .   S
    Zr12   O125      0.63268      .   S
    Zr53   O126      0.63251      .   S
    Zr20   O126      0.63251      .   S
    Zr59   O127      0.65128      .   S
    Zr23   O127      0.65128      .   S
    Zr43   O128      0.65080      .   S
    Zr15   O128      0.65080      .   S
    Zr28   O129      1.17492      .   S
    Zr8    O129      1.17492  1_655   S
    Zr32   O130      1.17537      .   S
    Zr10   O130      1.17537      .   S
    Zr58   O131      0.62524  1_545   S
    Zr23   O131      0.62524      .   S
    Zr42   O132      0.62609      .   S
    Zr15   O132      0.62609      .   S
    Zr38   O133      0.64698  1_565   S
    Zr13   O133      0.64698      .   S
    Zr54   O134      0.64706      .   S
    Zr21   O134      0.64706      .   S
    Zr22   O135      0.64618      .   S
    Zr56   O135      0.64618      .   S
    N136   O137      1.06609      .   S
    Zr21   O137      1.81188      .   S
    N136   O138      1.06520      .   S
    Zr20   O138      1.80737      .   S
    N136   O139      1.19792      .   S
    Zr10   O139      2.21798      .   S
    N140   O141      1.06574  1_655   S
    Zr14   O141      1.80854      .   S
    N140   O142      1.06911      .   S
    Zr15   O142      1.81917      .   S
    N140   O143      1.19584      .   S
    Zr8    O143      2.21266      .   S
    N144   O145      1.06593      .   S
    Zr16   O145      1.80856      .   S
    N144   O146      1.06651  1_455   S
    Zr17   O146      1.81283      .   S
    N144   O147      1.19802      .   S
    Zr9    O147      2.21771      .   S
    N148   O149      1.06635      .   S
    Zr22   O149      1.81012      .   S
    N148   O150      1.19508      .   S
    Zr10   O150      2.21144      .   S
    N148   O151      1.06992      .   S
    Zr23   O151      1.82118      .   S
    N152   O153      1.19845      .   S
    Zr11   O153      2.21934      .   S
    N152   O154      1.06637      .   S
    Zr25   O154      1.81258      .   S
    N152   O155      1.06593      .   S
    Zr24   O155      1.80872      .   S
    N156   O157      1.06282      .   S
    Zr26   O157      1.80641      .   S
    N156   O158      1.20402      .   S
    Zr11   O158      2.22114      .   S
    N156   O159      1.06606      .   S
    Zr27   O159      1.81682      .   S
    N160   O161      1.05747  1_455   S
    Zr18   O161      1.80061      .   S
    N160   O162      1.07751      .   S
    Zr19   O162      1.82856      .   S
    N160   O163      1.19666      .   S
    Zr9    O163      2.21243      .   S
    N164   O165      1.19856      .   S
    Zr8    O165      2.21931      .   S
    N164   O166      1.06610  1_655   S
    Zr13   O166      1.81186      .   S
    N164   O167      1.06588      .   S
    Zr12   O167      1.80867      .   S
