# CIF file generated by openbabel 2.4.90, see http://openbabel.sf.net
data_I
_chemical_name_common ''
_cell_length_a 21.409
_cell_length_b 12.775
_cell_length_c 12.76
_cell_angle_alpha 106.896
_cell_angle_beta 94.45
_cell_angle_gamma 85.418
_space_group_name_H-M_alt 'P 1'
_space_group_name_Hall 'P 1'
loop_
    _symmetry_equiv_pos_as_xyz
    x,y,z
loop_
    _atom_site_label
    _atom_site_type_symbol
    _atom_site_fract_x
    _atom_site_fract_y
    _atom_site_fract_z
    _atom_site_occupancy
    H0      H    0.38115   0.39880   0.65391   1.000
    H1      H    0.88205   0.39878   0.65396   1.000
    H2      H    0.35776   0.27124   0.47116   1.000
    H3      H    0.85850   0.27095   0.47142   1.000
    H4      H    0.03510   0.08865   0.49910   1.000
    H5      H    0.53450   0.08930   0.49860   1.000
    H6      H    0.05627   0.21534   0.68481   1.000
    H7      H    0.55543   0.21552   0.68474   1.000
    H8      H    0.36010   0.17181   0.30200   1.000
    H9      H    0.86129   0.17210   0.30193   1.000
    H10     H    0.38245   0.03244   0.23596   1.000
    H11     H    0.88317   0.03243   0.23606   1.000
    H12     H    0.37395   0.66397   0.81396   1.000
    H13     H    0.87399   0.66464   0.81313   1.000
    H14     H    0.28998   0.81321   0.81423   1.000
    H15     H    0.78999   0.81382   0.81346   1.000
    H16     H    0.27958   0.86021   0.16195   1.000
    H17     H    0.77911   0.85980   0.16095   1.000
    H18     H    0.36417   0.71045   0.14727   1.000
    H19     H    0.86372   0.71014   0.14619   1.000
    H20     H    0.20224   0.93123   0.91800   1.000
    H21     H    0.70191   0.93123   0.91800   1.000
    H22     H    0.20337   0.96075   0.06430   1.000
    H23     H    0.70306   0.96071   0.06350   1.000
    H24     H    0.36840   0.65345   0.39879   1.000
    H25     H    0.86869   0.65269   0.39860   1.000
    H26     H    0.39197   0.47069   0.27128   1.000
    H27     H    0.89169   0.46989   0.27072   1.000
    H28     H    0.21551   0.49874   0.08913   1.000
    H29     H    0.71514   0.49972   0.08945   1.000
    H30     H    0.19434   0.68470   0.21545   1.000
    H31     H    0.69460   0.68575   0.21600   1.000
    H32     H    0.38953   0.30133   0.17210   1.000
    H33     H    0.88927   0.30109   0.17049   1.000
    H34     H    0.36784   0.23587   0.03227   1.000
    H35     H    0.86704   0.23615   0.03077   1.000
    H36     H    0.37552   0.81351   0.66530   1.000
    H37     H    0.87618   0.81368   0.66475   1.000
    H38     H    0.45954   0.81401   0.81430   1.000
    H39     H    0.95998   0.81406   0.81411   1.000
    H40     H    0.47007   0.16093   0.85928   1.000
    H41     H    0.97057   0.16107   0.85960   1.000
    H42     H    0.38540   0.14609   0.70991   1.000
    H43     H    0.88615   0.14630   0.70978   1.000
    H44     H    0.04801   0.91844   0.93099   1.000
    H45     H    0.54781   0.91841   0.93045   1.000
    H46     H    0.04668   0.06376   0.96030   1.000
    H47     H    0.54645   0.06373   0.95975   1.000
    H48     H    0.11794   0.60116   0.34606   1.000
    H49     H    0.61894   0.60124   0.34607   1.000
    H50     H    0.14152   0.72904   0.52857   1.000
    H51     H    0.64229   0.72875   0.52885   1.000
    H52     H    0.46555   0.91070   0.50100   1.000
    H53     H    0.96493   0.91139   0.50088   1.000
    H54     H    0.44462   0.78444   0.31520   1.000
    H55     H    0.94379   0.78475   0.31514   1.000
    H56     H    0.13873   0.82790   0.69810   1.000
    H57     H    0.63998   0.82817   0.69793   1.000
    H58     H    0.11684   0.96755   0.76395   1.000
    H59     H    0.61765   0.96758   0.76401   1.000
    H60     H    0.12606   0.33533   0.18683   1.000
    H61     H    0.62606   0.33607   0.18601   1.000
    H62     H    0.21008   0.18617   0.18651   1.000
    H63     H    0.70997   0.18671   0.18570   1.000
    H64     H    0.22094   0.14016   0.83903   1.000
    H65     H    0.72040   0.13976   0.83800   1.000
    H66     H    0.13631   0.28979   0.85376   1.000
    H67     H    0.63589   0.28965   0.85273   1.000
    H68     H    0.29812   0.06870   0.08189   1.000
    H69     H    0.79775   0.06879   0.08100   1.000
    H70     H    0.29698   0.03923   0.93640   1.000
    H71     H    0.79661   0.03926   0.93557   1.000
    H72     H    0.13133   0.34721   0.60135   1.000
    H73     H    0.63159   0.34653   0.60135   1.000
    H74     H    0.10832   0.53001   0.72924   1.000
    H75     H    0.60808   0.52936   0.72876   1.000
    H76     H    0.28488   0.50026   0.91050   1.000
    H77     H    0.78455   0.50129   0.91087   1.000
    H78     H    0.30545   0.31423   0.78394   1.000
    H79     H    0.80574   0.31538   0.78451   1.000
    H80     H    0.11074   0.69885   0.82944   1.000
    H81     H    0.61050   0.69879   0.82796   1.000
    H82     H    0.13298   0.76382   0.96910   1.000
    H83     H    0.63217   0.76410   0.96782   1.000
    H84     H    0.12386   0.18626   0.33524   1.000
    H85     H    0.62449   0.18648   0.33472   1.000
    H86     H    0.04001   0.18594   0.18599   1.000
    H87     H    0.54050   0.18597   0.18569   1.000
    H88     H    0.02947   0.83889   0.14033   1.000
    H89     H    0.52995   0.83905   0.14074   1.000
    H90     H    0.11387   0.85364   0.29020   1.000
    H91     H    0.61458   0.85392   0.29017   1.000
    C92     C    0.66521   0.38115   0.66871   1.000
    C93     C    0.15243   0.48496   0.74063   1.000
    C94     C    0.65229   0.48470   0.74041   1.000
    C95     C    0.19584   0.52798   0.82780   1.000
    H96     H    0.45223   0.08158   0.06953   1.000
    H97     H    0.95203   0.08156   0.06900   1.000
    H98     H    0.45358   0.93625   0.04024   1.000
    H99     H    0.95334   0.93625   0.03967   1.000
    C100    C    0.46985   0.31641   0.68162   1.000
    C101    C    0.97077   0.31641   0.68160   1.000
    C102    C    0.41483   0.33140   0.61919   1.000
    C103    C    0.91569   0.33129   0.61929   1.000
    C104    C    0.40199   0.25962   0.51568   1.000
    C105    C    0.90275   0.25936   0.51590   1.000
    C106    C    0.44539   0.17242   0.47198   1.000
    C107    C    0.94608   0.17200   0.47230   1.000
    C108    C    0.00201   0.15732   0.53293   1.000
    C109    C    0.50132   0.15779   0.53264   1.000
    C110    C    0.01360   0.22824   0.63670   1.000
    C111    C    0.51280   0.22847   0.63660   1.000
    C112    C    0.37682   0.09294   0.31635   1.000
    C113    C    0.87754   0.09309   0.31630   1.000
    C114    C    0.35215   0.71112   0.88910   1.000
    C115    C    0.85207   0.71153   0.88825   1.000
    C116    C    0.30562   0.79342   0.89006   1.000
    C117    C    0.80552   0.79381   0.88922   1.000
    C118    C    0.27931   0.85134   0.98917   1.000
    C119    C    0.77905   0.85141   0.98829   1.000
    O120    O    0.06171   0.90268   0.62895   1.000
    O121    O    0.56238   0.90213   0.62936   1.000
    C122    C    0.29980   0.82015   0.08322   1.000
    C123    C    0.79942   0.81999   0.08225   1.000
    C124    C    0.34659   0.73683   0.07603   1.000
    C125    C    0.84622   0.73669   0.07502   1.000
    C126    C    0.23296   0.94715   0.99438   1.000
    C127    C    0.73265   0.94716   0.99354   1.000
    C128    C    0.27977   0.68136   0.31643   1.000
    C129    C    0.78014   0.68159   0.31658   1.000
    C130    C    0.33481   0.61885   0.33137   1.000
    C131    C    0.83496   0.61848   0.33128   1.000
    C132    C    0.34775   0.51533   0.25964   1.000
    C133    C    0.84759   0.51496   0.25933   1.000
    C134    C    0.30450   0.47182   0.17236   1.000
    C135    C    0.80417   0.47196   0.17215   1.000
    C136    C    0.24856   0.53256   0.15770   1.000
    C137    C    0.74836   0.53320   0.15787   1.000
    C138    C    0.23698   0.63656   0.22839   1.000
    C139    C    0.73712   0.63723   0.22875   1.000
    C140    C    0.37329   0.31599   0.09316   1.000
    C141    C    0.87269   0.31611   0.09184   1.000
    C142    C    0.39733   0.88858   0.71199   1.000
    C143    C    0.89799   0.88870   0.71159   1.000
    C144    C    0.44391   0.88965   0.79416   1.000
    C145    C    0.94443   0.88970   0.79394   1.000
    C146    C    0.47033   0.98858   0.85143   1.000
    C147    C    0.97080   0.98863   0.85136   1.000
    C148    C    0.44979   0.08236   0.81900   1.000
    C149    C    0.95037   0.08249   0.81982   1.000
    C150    C    0.40295   0.07506   0.73664   1.000
    C151    C    0.90368   0.07525   0.73647   1.000
    C152    C    0.01719   0.99388   0.94702   1.000
    C153    C    0.51699   0.99386   0.94680   1.000
    C154    C    0.02925   0.68360   0.31830   1.000
    C155    C    0.53022   0.68356   0.31836   1.000
    C156    C    0.08432   0.66869   0.38070   1.000
    C157    C    0.58525   0.66863   0.38079   1.000
    C158    C    0.09727   0.74064   0.48409   1.000
    C159    C    0.59806   0.74038   0.48432   1.000
    C160    C    0.05394   0.82800   0.52769   1.000
    C161    C    0.55466   0.82756   0.52000   1.000
    C162    C    0.49872   0.84220   0.46730   1.000
    C163    C    0.99802   0.84271   0.46700   1.000
    C164    C    0.48727   0.77151   0.36330   1.000
    C165    C    0.98644   0.77181   0.36318   1.000
    C166    C    0.12247   0.90689   0.68360   1.000
    C167    C    0.62326   0.90704   0.68363   1.000
    C168    C    0.14797   0.28841   0.11171   1.000
    C169    C    0.64788   0.28892   0.11087   1.000
    C170    C    0.19454   0.20617   0.11074   1.000
    C171    C    0.69435   0.20654   0.10990   1.000
    C172    C    0.22101   0.14855   0.01168   1.000
    C173    C    0.72066   0.14864   0.01078   1.000
    C174    C    0.20063   0.17997   0.91772   1.000
    C175    C    0.70019   0.17984   0.91673   1.000
    C176    C    0.15380   0.26322   0.92493   1.000
    C177    C    0.65346   0.26325   0.92396   1.000
    C178    C    0.26739   0.05278   0.00643   1.000
    C179    C    0.76702   0.05283   0.00557   1.000
    C180    C    0.21990   0.31836   0.68337   1.000
    C181    C    0.72026   0.31866   0.68363   1.000
    C182    C    0.16506   0.38145   0.66868   1.000
    C183    C    0.69554   0.52823   0.82767   1.000
    C184    C    0.25166   0.46676   0.84208   1.000
    C185    C    0.75148   0.46749   0.84230   1.000
    C186    C    0.26292   0.36274   0.77119   1.000
    C187    C    0.76308   0.36350   0.77160   1.000
    C188    C    0.12733   0.68385   0.90809   1.000
    C189    C    0.62674   0.68402   0.90685   1.000
    C190    C    0.10204   0.11126   0.28842   1.000
    C191    C    0.60268   0.11141   0.28803   1.000
    C192    C    0.05558   0.11028   0.20611   1.000
    C193    C    0.55612   0.11034   0.20584   1.000
    C194    C    0.02922   0.01135   0.14865   1.000
    C195    C    0.52970   0.01140   0.14857   1.000
    C196    C    0.04967   0.91746   0.18015   1.000
    C197    C    0.55023   0.91762   0.18023   1.000
    C198    C    0.09636   0.92470   0.26350   1.000
    C199    C    0.59705   0.92494   0.26340   1.000
    C200    C    0.48304   0.00612   0.05320   1.000
    C201    C    0.98284   0.00612   0.05299   1.000
    N202    N    0.37340   0.68430   0.98098   1.000
    N203    N    0.87324   0.68454   0.98007   1.000
    N204    N    0.37604   0.98019   0.68475   1.000
    N205    N    0.87681   0.98039   0.68440   1.000
    N206    N    0.12682   0.31545   0.01990   1.000
    N207    N    0.62662   0.31572   0.01899   1.000
    N208    N    0.12323   0.01956   0.31556   1.000
    N209    N    0.62396   0.01981   0.31530   1.000
    O210    O    0.43770   0.09788   0.37060   1.000
    O211    O    0.93830   0.09728   0.37107   1.000
    O212    O    0.31241   0.37057   0.09768   1.000
    O213    O    0.81182   0.37079   0.09726   1.000
    O214    O    0.18819   0.62915   0.90269   1.000
    O215    O    0.68763   0.62949   0.90234   1.000
loop_
    _geom_bond_atom_site_label_1
    _geom_bond_atom_site_label_2
    _geom_bond_distance
    _geom_bond_site_symmetry_2
    _ccdc_geom_bond_type
    C179   C173      1.50211      .   S
    C179   H69       1.09990      .   S
    C179   H71       1.09976  1_554   S
    C179   C127      1.55186  1_544   S
    C178   C172      1.50204      .   S
    C178   H68       1.10019      .   S
    C178   H70       1.10001  1_554   S
    C178   C126      1.55199  1_544   S
    C173   C171      1.40153      .   S
    C173   C175      1.39992  1_554   S
    C172   C170      1.40160      .   S
    C172   C174      1.39983  1_554   S
    N207   C169      1.35072      .   S
    N207   C177      1.35057  1_554   S
    N206   C168      1.35078      .   S
    N206   C176      1.35073  1_554   S
    H35    C141      1.09894      .   S
    H34    C140      1.09894      .   S
    H99    C201      1.09993  1_565   S
    H98    C200      1.09996  1_565   S
    C201   H97       1.10028      .   S
    C201   C194      1.50184  1_655   S
    C201   C152      1.55131  1_644   S
    C200   H96       1.10027      .   S
    C200   C195      1.50263      .   S
    C200   C153      1.55158  1_544   S
    H23    C127      1.09928  1_554   S
    H22    C126      1.09890  1_554   S
    C125   C123      1.38985      .   S
    C125   H19       1.08907      .   S
    C125   N203      1.35075  1_554   S
    C124   C122      1.38991      .   S
    C124   H18       1.08916      .   S
    C124   N202      1.35062  1_554   S
    C123   H17       1.09166      .   S
    C123   C119      1.39976  1_554   S
    C122   H16       1.09166      .   S
    C122   C118      1.39987  1_554   S
    H28    C136      1.08910      .   S
    H29    C137      1.08909      .   S
    C141   O213      1.42524      .   S
    C141   H33       1.10261      .   S
    C140   O212      1.42520      .   S
    C140   H32       1.10253      .   S
    O213   C135      1.37221      .   S
    O212   C134      1.37235      .   S
    C171   C169      1.38739      .   S
    C171   H63       1.09096      .   S
    C170   C168      1.38743      .   S
    C170   H62       1.09122      .   S
    C169   H61       1.09040      .   S
    C168   H60       1.09041      .   S
    H88    C196      1.09158      .   S
    H89    C197      1.09160      .   S
    C195   C197      1.40039  1_545   S
    C195   C193      1.40165      .   S
    C194   C196      1.40029  1_545   S
    C194   C192      1.40155      .   S
    C136   C134      1.40448      .   S
    C136   C138      1.38770      .   S
    C137   C135      1.40453      .   S
    C137   C139      1.38782      .   S
    C135   C133      1.40318      .   S
    C134   C132      1.40319      .   S
    C196   C198      1.38977      .   S
    C197   C199      1.39004      .   S
    H87    C193      1.09122      .   S
    H86    C192      1.09118      .   S
    C193   C191      1.38761      .   S
    C192   C190      1.38737      .   S
    H30    C138      1.08853      .   S
    H31    C139      1.08852      .   S
    C138   C128      1.40677      .   S
    C139   C129      1.40694      .   S
    H10    C112      1.09891      .   S
    H11    C113      1.09837      .   S
    C133   H27       1.08838      .   S
    C133   C131      1.39301      .   S
    C132   H26       1.08839      .   S
    C132   C130      1.39312      .   S
    C199   H91       1.08918      .   S
    C199   N209      1.35094  1_565   S
    C198   H90       1.08916      .   S
    C198   N208      1.35091  1_565   S
    C191   N209      1.35085      .   S
    C191   H85       1.09037      .   S
    C190   N208      1.35079      .   S
    C190   H84       1.09034      .   S
    H9     C113      1.10221      .   S
    H8     C112      1.10288      .   S
    H55    C165      1.08849      .   S
    H54    C164      1.08880      .   S
    C113   O211      1.42532      .   S
    C112   O210      1.42464      .   S
    C128   C130      1.40203      .   S
    C129   C131      1.40196      .   S
    C154   C165      1.40688  1_455   S
    C154   C156      1.40235      .   S
    C155   C164      1.40670      .   S
    C155   C157      1.40201      .   S
    C131   H25       1.08921      .   S
    C130   H24       1.08917      .   S
    H48    C156      1.08913      .   S
    H49    C157      1.08921      .   S
    C165   C163      1.38719      .   S
    C164   C162      1.38744      .   S
    O210   C106      1.37234      .   S
    O211   C107      1.37210      .   S
    C156   C158      1.39332      .   S
    C157   C159      1.39310      .   S
    C163   H53       1.08915      .   S
    C163   C160      1.40467  1_655   S
    C162   H52       1.08835      .   S
    C162   C161      1.35406      .   S
    H2     C104      1.08836      .   S
    H3     C105      1.08840      .   S
    C106   C104      1.40325      .   S
    C106   C109      1.40447      .   S
    C107   C105      1.40321      .   S
    C107   C108      1.40440  1_655   S
    C158   C160      1.40322      .   S
    C158   H50       1.08839      .   S
    C159   C161      1.38456      .   S
    C159   H51       1.08839      .   S
    H5     C109      1.08926      .   S
    H4     C108      1.08901      .   S
    C104   C102      1.39316      .   S
    C105   C103      1.39315      .   S
    C161   O121      1.44867      .   S
    C160   O120      1.37215      .   S
    C109   C111      1.38705      .   S
    C108   C110      1.38680      .   S
    H72    C182      1.08925      .   S
    H73    C92       1.08922      .   S
    C102   H0        1.08921      .   S
    C102   C100      1.40196      .   S
    C103   H1        1.08919      .   S
    C103   C101      1.40189      .   S
    O120   C166      1.42474      .   S
    O121   C167      1.42469      .   S
    C111   C100      1.40693      .   S
    C111   H7        1.08898      .   S
    C110   C101      1.40687  1_455   S
    C110   H6        1.08913      .   S
    H37    C143      1.09036      .   S
    H36    C142      1.09040      .   S
    C182   C180      1.40193      .   S
    C182   C93       1.39301      .   S
    C92    C181      1.40206      .   S
    C92    C94       1.39311      .   S
    C180   C186      1.40691      .   S
    C166   H56       1.10282      .   S
    C166   H58       1.09939      .   S
    C167   H57       1.10258      .   S
    C167   H59       1.09895      .   S
    C181   C187      1.40671      .   S
    N205   C143      1.35097      .   S
    N205   C151      1.35094  1_565   S
    N204   C142      1.35084      .   S
    N204   C150      1.35097  1_565   S
    H43    C151      1.08908      .   S
    H42    C150      1.08917      .   S
    C143   C145      1.38737      .   S
    C142   C144      1.38758      .   S
    H75    C94       1.08844      .   S
    H74    C93       1.08837      .   S
    C151   C149      1.38984      .   S
    C150   C148      1.38316      .   S
    C94    C183      1.40315      .   S
    C93    C95       1.40317      .   S
    C186   H78       1.08854      .   S
    C186   C184      1.38782      .   S
    C187   H79       1.08854      .   S
    C187   C185      1.38765      .   S
    C145   H39       1.09116      .   S
    C145   C147      1.40152      .   S
    C144   H38       1.09128      .   S
    C144   C146      1.40166      .   S
    H13    C115      1.09045      .   S
    H15    C117      1.09117      .   S
    H12    C114      1.09034      .   S
    H14    C116      1.09117      .   S
    C148   C146      1.40563  1_545   S
    C148   H40       1.09330      .   S
    C149   C147      1.40022  1_545   S
    C149   H41       1.09156      .   S
    C183   C185      1.40443      .   S
    C183   O215      1.37238      .   S
    C95    C184      1.40453      .   S
    C95    O214      1.37225      .   S
    H81    C189      1.10249      .   S
    H80    C188      1.10253      .   S
    H65    C175      1.09159      .   S
    H64    C174      1.09159      .   S
    C184   H76       1.08917      .   S
    C185   H77       1.08925      .   S
    C147   C152      1.50191  1_655   S
    C146   C153      1.50258      .   S
    H67    C177      1.08911      .   S
    H66    C176      1.08913      .   S
    C115   C117      1.38744      .   S
    C115   N203      1.35075      .   S
    C114   C116      1.38741      .   S
    C114   N202      1.35078      .   S
    C117   C119      1.40163      .   S
    C116   C118      1.40148      .   S
    O215   C189      1.42526      .   S
    O214   C188      1.42522      .   S
    C189   H83       1.09898      .   S
    C188   H82       1.09870      .   S
    C175   C177      1.38991      .   S
    C174   C176      1.38982      .   S
    H21    C127      1.10116      .   S
    H20    C126      1.10918      .   S
    H45    C153      1.10029      .   S
    H44    C152      1.10028      .   S
    C153   H47       1.09996  1_565   S
    C152   H46       1.09998  1_565   S
    C119   C127      1.50207      .   S
    C118   C126      1.50209      .   S
