# CIF file generated by openbabel 2.4.90, see http://openbabel.sf.net
data_I
_chemical_name_common ''
_cell_length_a 21.409
_cell_length_b 12.775
_cell_length_c 12.76
_cell_angle_alpha 106.896
_cell_angle_beta 94.45
_cell_angle_gamma 85.418
_space_group_name_H-M_alt 'P 1'
_space_group_name_Hall 'P 1'
loop_
    _symmetry_equiv_pos_as_xyz
    x,y,z
loop_
    _atom_site_label
    _atom_site_type_symbol
    _atom_site_fract_x
    _atom_site_fract_y
    _atom_site_fract_z
    _atom_site_occupancy
    Zn0     Zn   0.95032   0.57786   0.98129   1.000
    Zn1     Zn   0.29883   0.98094   0.57794   1.000
    Zn2     Zn   0.79975   0.98141   0.57790   1.000
    Zn3     Zn   0.04975   0.42212   0.01873   1.000
    Zn4     Zn   0.54929   0.42208   0.01855   1.000
    Zn5     Zn   0.20027   0.01856   0.42211   1.000
    Zn6     Zn   0.70120   0.01903   0.42205   1.000
    Zn7     Zn   0.45073   0.57793   0.98142   1.000
    C8      C    0.48108   0.38958   0.79498   1.000
    C9      C    0.98215   0.38973   0.79486   1.000
    C10     C    0.32681   0.05484   0.37500   1.000
    C11     C    0.82703   0.05568   0.37459   1.000
    O12     O    0.22871   0.93880   0.66689   1.000
    O13     O    0.72905   0.94073   0.66655   1.000
    O14     O    0.15446   0.97765   0.54379   1.000
    C15     C    0.26840   0.79473   0.38951   1.000
    C16     C    0.76924   0.79509   0.38971   1.000
    C17     C    0.42371   0.37446   0.05587   1.000
    C18     C    0.92287   0.37476   0.05416   1.000
    C19     C    0.01787   0.61027   0.20514   1.000
    C20     C    0.51897   0.61042   0.20490   1.000
    C21     C    0.17298   0.94431   0.62542   1.000
    C22     C    0.67327   0.94510   0.62493   1.000
    C23     C    0.23079   0.20486   0.61020   1.000
    C24     C    0.73162   0.20527   0.61054   1.000
    C25     C    0.07715   0.62523   0.94581   1.000
    C26     C    0.57632   0.62552   0.94410   1.000
    O27     O    0.44822   0.48019   0.82324   1.000
    O28     O    0.94931   0.48040   0.82309   1.000
    O29     O    0.02371   0.35536   0.85666   1.000
    O30     O    0.52258   0.35514   0.85690   1.000
    O31     O    0.27102   0.05930   0.33349   1.000
    O32     O    0.77130   0.06119   0.33310   1.000
    O33     O    0.34570   0.02222   0.45694   1.000
    O34     O    0.84554   0.02233   0.45623   1.000
    O35     O    0.30126   0.82304   0.48005   1.000
    O36     O    0.80214   0.82311   0.48023   1.000
    O37     O    0.22679   0.85654   0.35510   1.000
    O38     O    0.72797   0.85737   0.35526   1.000
    O39     O    0.47950   0.33305   0.06127   1.000
    O40     O    0.97866   0.33313   0.05856   1.000
    O41     O    0.40509   0.45611   0.02269   1.000
    O42     O    0.90400   0.45680   0.02170   1.000
    O43     O    0.05074   0.51964   0.17689   1.000
    O44     O    0.55180   0.51978   0.17675   1.000
    O45     O    0.47745   0.64485   0.14309   1.000
    O46     O    0.97627   0.64458   0.14336   1.000
    O47     O    0.65441   0.97766   0.54297   1.000
    O48     O    0.19789   0.17684   0.51970   1.000
    O49     O    0.69876   0.17694   0.52001   1.000
    O50     O    0.27208   0.14260   0.64469   1.000
    O51     O    0.77324   0.14347   0.64485   1.000
    O52     O    0.02136   0.66690   0.94150   1.000
    O53     O    0.52052   0.66691   0.93868   1.000
    O54     O    0.09602   0.54314   0.97815   1.000
    O55     O    0.59494   0.54388   0.97730   1.000
loop_
    _geom_bond_atom_site_label_1
    _geom_bond_atom_site_label_2
    _geom_bond_distance
    _geom_bond_site_symmetry_2
    _ccdc_geom_bond_type
    Zn4    O39       2.14040      .   S
    Zn4    O44       2.04078      .   S
    Zn4    O30       2.04515  1_554   S
    Zn4    O55       2.11001  1_554   S
    Zn3    O40       2.14454  1_455   S
    Zn3    O43       2.03998      .   S
    Zn3    O29       2.04612  1_554   S
    Zn3    O54       2.10455  1_554   S
    O42    C18       1.26174      .   S
    O42    Zn0       2.10458  1_554   S
    O41    C17       1.26109      .   S
    O41    Zn7       2.11020  1_554   S
    C18    O40       1.27208      .   S
    C17    O39       1.27242      .   S
    O45    C20       1.27901      .   S
    O45    Zn7       2.04539  1_554   S
    O46    C19       1.27919  1_655   S
    O46    Zn0       2.04564  1_554   S
    O44    C20       1.27720      .   S
    O43    C19       1.27761      .   S
    O32    C11       1.27237      .   S
    O32    Zn6       2.14001      .   S
    O31    C10       1.27244      .   S
    O31    Zn5       2.13943      .   S
    O37    C15       1.27996      .   S
    O37    Zn5       2.04852  1_565   S
    O38    C16       1.27973      .   S
    O38    Zn6       2.04536  1_565   S
    C11    O34       1.26125      .   S
    C10    O33       1.26138      .   S
    C15    O35       1.27756      .   S
    C16    O36       1.27746      .   S
    Zn6    O49       2.04023      .   S
    Zn6    O47       2.11232  1_545   S
    Zn5    O48       2.04237      .   S
    Zn5    O14       2.10610  1_545   S
    O34    Zn2       2.10580  1_545   S
    O33    Zn1       2.11347  1_545   S
    O35    Zn1       2.03973      .   S
    O36    Zn2       2.04295      .   S
    O48    C23       1.27731      .   S
    O49    C24       1.27748      .   S
    O47    C22       1.26104      .   S
    O14    C21       1.26115      .   S
    Zn2    O51       2.04876  1_565   S
    Zn2    O13       2.13862      .   S
    Zn1    O50       2.04516  1_565   S
    Zn1    O12       2.14011      .   S
    C23    O50       1.28005      .   S
    C24    O51       1.27945      .   S
    C22    O13       1.27256      .   S
    C21    O12       1.27232      .   S
    C9     O28       1.27760      .   S
    C9     O29       1.27919  1_655   S
    C8     O27       1.27730      .   S
    C8     O30       1.27974      .   S
    O28    Zn0       2.04014      .   S
    O27    Zn7       2.04077      .   S
    O53    C26       1.27247      .   S
    O53    Zn7       2.14011      .   S
    O52    C25       1.27207      .   S
    O52    Zn0       2.14401  1_455   S
    C26    O55       1.26107      .   S
    C25    O54       1.26138      .   S
    Zn7    Zn4       2.89173  1_556   S
    Zn0    Zn3       2.90453  1_656   S
    Zn1    Zn5       2.89471  1_565   S
    Zn2    Zn6       2.89480  1_565   S
