# CIF file generated by openbabel 2.4.90, see http://openbabel.sf.net
data_I
_chemical_name_common ''
_cell_length_a 21.409
_cell_length_b 12.775
_cell_length_c 12.76
_cell_angle_alpha 106.896
_cell_angle_beta 94.45
_cell_angle_gamma 85.418
_space_group_name_H-M_alt 'P 1'
_space_group_name_Hall 'P 1'
loop_
    _symmetry_equiv_pos_as_xyz
    x,y,z
loop_
    _atom_site_label
    _atom_site_type_symbol
    _atom_site_fract_x
    _atom_site_fract_y
    _atom_site_fract_z
    _atom_site_occupancy
    C0      C    0.48108   0.38958   0.79498   1.000
    C1      C    0.98215   0.38973   0.79486   1.000
    C2      C    0.32681   0.05484   0.37500   1.000
    C3      C    0.82703   0.05568   0.37459   1.000
    C4      C    0.26840   0.79473   0.38951   1.000
    C5      C    0.76924   0.79509   0.38971   1.000
    C6      C    0.42371   0.37446   0.05587   1.000
    C7      C    0.92287   0.37476   0.05416   1.000
    C8      C    0.01787   0.61027   0.20514   1.000
    C9      C    0.51897   0.61042   0.20490   1.000
    C10     C    0.17298   0.94431   0.62542   1.000
    C11     C    0.67327   0.94510   0.62493   1.000
    C12     C    0.23079   0.20486   0.61020   1.000
    C13     C    0.73162   0.20527   0.61054   1.000
    C14     C    0.07715   0.62523   0.94581   1.000
    C15     C    0.57632   0.62552   0.94410   1.000
