# CIF file generated by openbabel 2.4.90, see http://openbabel.sf.net
data_I
_chemical_name_common ''
_cell_length_a 21.409
_cell_length_b 12.775
_cell_length_c 12.76
_cell_angle_alpha 106.896
_cell_angle_beta 94.45
_cell_angle_gamma 85.418
_space_group_name_H-M_alt 'P 1'
_space_group_name_Hall 'P 1'
loop_
    _symmetry_equiv_pos_as_xyz
    x,y,z
loop_
    _atom_site_label
    _atom_site_type_symbol
    _atom_site_fract_x
    _atom_site_fract_y
    _atom_site_fract_z
    _atom_site_occupancy
    N0      N    0.68820   0.50091   0.79748   1.000
    N1      N    0.31183   0.49913   0.20255   1.000
    N2      N    0.43801   0.20257   0.49936   1.000
    N3      N    0.93880   0.20237   0.49953   1.000
    N4      N    0.81166   0.49926   0.20222   1.000
    N5      N    0.00001   0.99998   1.00000   1.000
    N6      N    0.18836   0.50069   0.79772   1.000
    N7      N    0.74988   0.00006   0.99953   1.000
    N8      N    0.25014   0.99993   0.00039   1.000
    N9      N    0.56206   0.79742   0.50001   1.000
    N10     N    0.50001   0.99999   0.99998   1.000
    N11     N    0.06123   0.79763   0.50044   1.000
    Zr12    Zr   0.50001   0.49999   0.99998   1.000
    O13     O    0.58446   0.34224   0.00456   1.000
    O14     O    0.41556   0.65776   0.99539   1.000
    O15     O    0.52167   0.61110   0.19040   1.000
    O16     O    0.42759   0.46108   0.06926   1.000
    O17     O    0.57244   0.53892   0.93073   1.000
    O18     O    0.47838   0.38889   0.80941   1.000
    Zr19    Zr   0.00001   0.49999   0.99999   1.000
    O20     O    0.92737   0.46117   0.06880   1.000
    O21     O    0.91542   0.65781   0.99505   1.000
    O22     O    0.02121   0.61114   0.19054   1.000
    O23     O    0.07266   0.53880   0.93116   1.000
    O24     O    0.97882   0.38886   0.80944   1.000
    O25     O    0.08461   0.34217   0.00492   1.000
    Zr26    Zr   0.75032   0.00031   0.49992   1.000
    O27     O    0.66581   0.00501   0.34212   1.000
    O28     O    0.82293   0.06935   0.46120   1.000
    O29     O    0.67774   0.93103   0.53853   1.000
    O30     O    0.77175   0.80956   0.38880   1.000
    O31     O    0.72870   0.19087   0.61110   1.000
    O32     O    0.83474   0.99538   0.65775   1.000
    Zr33    Zr   0.24971   0.99966   0.50006   1.000
    O34     O    0.17710   0.93064   0.53877   1.000
    O35     O    0.32231   0.06895   0.46129   1.000
    O36     O    0.27134   0.80912   0.38891   1.000
    O37     O    0.22828   0.19041   0.61116   1.000
    O38     O    0.33422   0.99497   0.65786   1.000
    O39     O    0.16530   0.00459   0.34224   1.000
loop_
    _geom_bond_atom_site_label_1
    _geom_bond_atom_site_label_2
    _geom_bond_distance
    _geom_bond_site_symmetry_2
    _ccdc_geom_bond_type
    Zr12   O13       2.60841  1_556   S
    N7     O13       5.39003  1_556   S
    Zr12   O14       2.60857      .   S
    N8     O14       5.39004  1_554   S
    Zr12   O15       2.46149  1_556   S
    N9     O15       4.04393      .   S
    Zr12   O16       2.00596  1_556   S
    N1     O16       3.04170      .   S
    Zr12   O17       2.00589      .   S
    N0     O17       3.04149      .   S
    Zr12   O18       2.46304      .   S
    N2     O18       4.04823      .   S
    Zr19   O20       2.00603  1_456   S
    N4     O20       3.04163      .   S
    Zr19   O21       2.61178  1_455   S
    N7     O21       5.39357  1_545   S
    Zr19   O22       2.46138  1_556   S
    N11    O22       4.04618      .   S
    Zr19   O23       2.00600      .   S
    N6     O23       3.04171      .   S
    Zr19   O24       2.46148  1_455   S
    N3     O24       4.04620      .   S
    Zr19   O25       2.61188  1_556   S
    N8     O25       5.39329  1_565   S
    Zr26   O27       2.61136      .   S
    N10    O27       5.39750  1_566   S
    Zr26   O28       2.00740      .   S
    N3     O28       3.04671      .   S
    Zr26   O29       2.00815  1_545   S
    N9     O29       3.04755      .   S
    Zr26   O30       2.46440  1_545   S
    N4     O30       4.04979      .   S
    Zr26   O31       2.46327      .   S
    N0     O31       4.04852      .   S
    Zr26   O32       2.61080  1_545   S
    N5     O32       5.39273  1_455   S
    Zr33   O34       2.00745      .   S
    N11    O34       3.04666      .   S
    Zr33   O35       2.00938  1_565   S
    N2     O35       3.04826      .   S
    Zr33   O36       2.46288      .   S
    N1     O36       4.04806      .   S
    Zr33   O37       2.46421  1_565   S
    N6     O37       4.04960      .   S
    Zr33   O38       2.61122      .   S
    N10    O38       5.39708      .   S
    Zr33   O39       2.61081  1_565   S
    N5     O39       5.39273  1_566   S
