# CIF file generated by openbabel 2.4.90, see http://openbabel.sf.net
data_I
_chemical_name_common ''
_cell_length_a 21.409
_cell_length_b 12.775
_cell_length_c 12.76
_cell_angle_alpha 106.896
_cell_angle_beta 94.45
_cell_angle_gamma 85.418
_space_group_name_H-M_alt 'P 1'
_space_group_name_Hall 'P 1'
loop_
    _symmetry_equiv_pos_as_xyz
    x,y,z
loop_
    _atom_site_label
    _atom_site_type_symbol
    _atom_site_fract_x
    _atom_site_fract_y
    _atom_site_fract_z
    _atom_site_occupancy
    Zr0     Zr   0.45073   0.57793   0.98142   1.000
    Zr1     Zr   0.95032   0.57786   0.98129   1.000
    Zr2     Zr   0.29883   0.98094   0.57794   1.000
    Zr3     Zr   0.79975   0.98141   0.57790   1.000
    Zr4     Zr   0.04975   0.42212   0.01873   1.000
    Zr5     Zr   0.54929   0.42208   0.01855   1.000
    Zr6     Zr   0.20027   0.01856   0.42211   1.000
    Zr7     Zr   0.70120   0.01903   0.42205   1.000
    Zr8     Zr   0.48108   0.38958   0.79498   1.000
    Zr9     Zr   0.98215   0.38973   0.79486   1.000
    Zr10    Zr   0.32681   0.05484   0.37500   1.000
    Zr11    Zr   0.82703   0.05568   0.37459   1.000
    Zr12    Zr   0.26840   0.79473   0.38951   1.000
    Zr13    Zr   0.76924   0.79509   0.38971   1.000
    Zr14    Zr   0.42371   0.37446   0.05587   1.000
    Zr15    Zr   0.92287   0.37476   0.05416   1.000
    Zr16    Zr   0.01787   0.61027   0.20514   1.000
    Zr17    Zr   0.51897   0.61042   0.20490   1.000
    Zr18    Zr   0.17298   0.94431   0.62542   1.000
    Zr19    Zr   0.67327   0.94510   0.62493   1.000
    Zr20    Zr   0.23079   0.20486   0.61020   1.000
    Zr21    Zr   0.73162   0.20527   0.61054   1.000
    Zr22    Zr   0.07715   0.62523   0.94581   1.000
    Zr23    Zr   0.57632   0.62552   0.94410   1.000
    Zr24    Zr   0.44822   0.48019   0.82324   1.000
    Zr25    Zr   0.94931   0.48040   0.82309   1.000
    Zr26    Zr   0.02371   0.35536   0.85666   1.000
    Zr27    Zr   0.52258   0.35514   0.85690   1.000
    Zr28    Zr   0.27102   0.05930   0.33349   1.000
    Zr29    Zr   0.77130   0.06119   0.33310   1.000
    Zr30    Zr   0.34570   0.02222   0.45694   1.000
    Zr31    Zr   0.84554   0.02233   0.45623   1.000
    Zr32    Zr   0.30126   0.82304   0.48005   1.000
    Zr33    Zr   0.80214   0.82311   0.48023   1.000
    Zr34    Zr   0.22679   0.85654   0.35510   1.000
    Zr35    Zr   0.72797   0.85737   0.35526   1.000
    Zr36    Zr   0.47950   0.33305   0.06127   1.000
    Zr37    Zr   0.97866   0.33313   0.05856   1.000
    Zr38    Zr   0.40509   0.45611   0.02269   1.000
    Zr39    Zr   0.90400   0.45680   0.02170   1.000
    Zr40    Zr   0.05074   0.51964   0.17689   1.000
    Zr41    Zr   0.55180   0.51978   0.17675   1.000
    Zr42    Zr   0.47745   0.64485   0.14309   1.000
    Zr43    Zr   0.97627   0.64458   0.14336   1.000
    Zr44    Zr   0.22871   0.93880   0.66689   1.000
    Zr45    Zr   0.72905   0.94073   0.66655   1.000
    Zr46    Zr   0.15446   0.97765   0.54379   1.000
    Zr47    Zr   0.65441   0.97766   0.54297   1.000
    Zr48    Zr   0.19789   0.17684   0.51970   1.000
    Zr49    Zr   0.69876   0.17694   0.52001   1.000
    Zr50    Zr   0.27208   0.14260   0.64469   1.000
    Zr51    Zr   0.77324   0.14347   0.64485   1.000
    Zr52    Zr   0.02136   0.66690   0.94150   1.000
    Zr53    Zr   0.52052   0.66691   0.93868   1.000
    Zr54    Zr   0.09602   0.54314   0.97815   1.000
    Zr55    Zr   0.59494   0.54388   0.97730   1.000
    O56     O    0.51440   0.37757   0.03991   1.000
    O57     O    0.55054   0.47093   0.09765   1.000
    O58     O    0.53593   0.38861   0.93772   1.000
    O59     O    0.57211   0.48298   0.99792   1.000
    O60     O    0.01421   0.37762   0.03864   1.000
    O61     O    0.05025   0.47088   0.09781   1.000
    O62     O    0.03673   0.38874   0.93769   1.000
    O63     O    0.07288   0.48263   0.99844   1.000
    O64     O    0.91344   0.41578   0.03793   1.000
    O65     O    0.92716   0.51733   0.00149   1.000
    O66     O    0.41440   0.41528   0.03928   1.000
    O67     O    0.42791   0.51702   0.00205   1.000
    O68     O    0.95077   0.35394   0.05636   1.000
    O69     O    0.45160   0.35375   0.05857   1.000
    O70     O    0.49821   0.62763   0.17399   1.000
    O71     O    0.46409   0.61139   0.06225   1.000
    O72     O    0.99707   0.62743   0.17425   1.000
    O73     O    0.96330   0.61122   0.06232   1.000
    O74     O    0.53538   0.56510   0.19082   1.000
    O75     O    0.03431   0.56495   0.19101   1.000
    O76     O    0.79917   0.05844   0.35384   1.000
    O77     O    0.73625   0.04011   0.37757   1.000
    O78     O    0.29891   0.05707   0.35424   1.000
    O79     O    0.23564   0.03893   0.37780   1.000
    O80     O    0.24759   0.82564   0.37230   1.000
    O81     O    0.21353   0.93755   0.38861   1.000
    O82     O    0.74860   0.82623   0.37248   1.000
    O83     O    0.71458   0.93820   0.38866   1.000
    O84     O    0.83629   0.03900   0.41541   1.000
    O85     O    0.33625   0.03853   0.41597   1.000
    O86     O    0.28483   0.80889   0.43478   1.000
    O87     O    0.78569   0.80910   0.43497   1.000
    O88     O    0.69998   0.09799   0.47103   1.000
    O89     O    0.67781   0.99834   0.48251   1.000
    O90     O    0.19908   0.09770   0.47090   1.000
    O91     O    0.17737   0.99811   0.48295   1.000
    O92     O    0.82265   0.00187   0.51706   1.000
    O93     O    0.32226   0.00158   0.51744   1.000
    O94     O    0.30005   0.90199   0.52899   1.000
    O95     O    0.80094   0.90226   0.52906   1.000
    O96     O    0.21434   0.19085   0.56495   1.000
    O97     O    0.71519   0.19111   0.56527   1.000
    O98     O    0.66384   0.96138   0.58395   1.000
    O99     O    0.16372   0.96098   0.58460   1.000
    O100    O    0.78650   0.06244   0.61138   1.000
    O101    O    0.76440   0.96107   0.62222   1.000
    O102    O    0.28546   0.06177   0.61132   1.000
    O103    O    0.26377   0.95987   0.62241   1.000
    O104    O    0.25144   0.17373   0.62745   1.000
    O105    O    0.75243   0.17437   0.62769   1.000
    O106    O    0.70116   0.94292   0.64574   1.000
    O107    O    0.20085   0.94155   0.64615   1.000
    O108    O    0.96573   0.43506   0.80897   1.000
    O109    O    0.00293   0.37255   0.82576   1.000
    O110    O    0.46465   0.43488   0.80911   1.000
    O111    O    0.50183   0.37236   0.82594   1.000
    O112    O    0.94982   0.52913   0.90219   1.000
    O113    O    0.44948   0.52906   0.90233   1.000
    O114    O    0.54842   0.64622   0.94139   1.000
    O115    O    0.48563   0.62242   0.96005   1.000
    O116    O    0.04926   0.64606   0.94365   1.000
    O117    O    0.98584   0.62238   0.96139   1.000
    O118    O    0.58563   0.58470   0.96070   1.000
    O119    O    0.08658   0.58418   0.96198   1.000
    O120    O    0.50001   0.50001   0.99998   1.000
    O121    O    0.00004   0.49999   0.00001   1.000
    O122    O    0.24955   0.99975   0.50002   1.000
    O123    O    0.75048   0.00022   0.49998   1.000
    N124    N    0.68820   0.50091   0.79748   1.000
    O125    O    0.70707   0.38144   0.72228   1.000
    O126    O    0.64487   0.57784   0.86148   1.000
    N127    N    0.31183   0.49913   0.20255   1.000
    O128    O    0.35516   0.42218   0.13853   1.000
    O129    O    0.29296   0.61859   0.27776   1.000
    N130    N    0.43801   0.20257   0.49936   1.000
    O131    O    0.39491   0.13823   0.42252   1.000
    O132    O    0.45674   0.27778   0.61883   1.000
    N133    N    0.93880   0.20237   0.49953   1.000
    O134    O    0.89554   0.13838   0.42249   1.000
    O135    O    0.95763   0.27772   0.61888   1.000
    N136    N    0.81166   0.49926   0.20222   1.000
    O137    O    0.85472   0.42234   0.13761   1.000
    O138    O    0.79318   0.61880   0.27768   1.000
    N139    N    0.00001   0.99998   1.00000   1.000
    O140    O    0.91915   0.99044   0.81557   1.000
    O141    O    0.08088   0.00952   0.18442   1.000
    N142    N    0.18836   0.50069   0.79772   1.000
    O143    O    0.20685   0.38115   0.72225   1.000
    O144    O    0.14530   0.57761   0.86234   1.000
    N145    N    0.74988   0.00006   0.99953   1.000
    O146    O    0.66891   0.18448   0.00915   1.000
    O147    O    0.83083   0.81563   0.99010   1.000
    N148    N    0.25014   0.99993   0.00039   1.000
    O149    O    0.16921   0.18435   0.00985   1.000
    O150    O    0.33110   0.81552   0.99080   1.000
    N151    N    0.56206   0.79742   0.50001   1.000
    O152    O    0.54333   0.72220   0.38082   1.000
    O153    O    0.60516   0.86174   0.57714   1.000
    N154    N    0.50001   0.99999   0.99998   1.000
    O155    O    0.58129   0.00971   0.18433   1.000
    O156    O    0.41872   0.99028   0.81566   1.000
    N157    N    0.06123   0.79763   0.50044   1.000
    O158    O    0.10448   0.86161   0.57748   1.000
    O159    O    0.04240   0.72228   0.38108   1.000
loop_
    _geom_bond_atom_site_label_1
    _geom_bond_atom_site_label_2
    _geom_bond_distance
    _geom_bond_site_symmetry_2
    _ccdc_geom_bond_type
    Zr5    O56       1.07020      .   S
    Zr36   O56       1.07020      .   S
    Zr5    O57       1.02039      .   S
    Zr41   O57       1.02039      .   S
    Zr5    O58       1.02257  1_554   S
    Zr27   O58       1.02257      .   S
    Zr5    O59       1.05500  1_554   S
    Zr55   O59       1.05500      .   S
    Zr4    O60       1.07227      .   S
    Zr37   O60       1.07227  1_655   S
    Zr4    O61       1.01999      .   S
    Zr40   O61       1.01999      .   S
    Zr4    O62       1.02306  1_554   S
    Zr26   O62       1.02306      .   S
    Zr4    O63       1.05228  1_554   S
    Zr54   O63       1.05228      .   S
    Zr39   O64       0.63087      .   S
    Zr15   O64       0.63087      .   S
    Zr39   O65       1.05229      .   S
    Zr1    O65       1.05229  1_556   S
    Zr38   O66       0.63055      .   S
    Zr14   O66       0.63055      .   S
    Zr38   O67       1.05510      .   S
    Zr0    O67       1.05510  1_556   S
    Zr15   O68       0.63604      .   S
    Zr37   O68       0.63604      .   S
    Zr14   O69       0.63621      .   S
    Zr36   O69       0.63621      .   S
    Zr42   O70       0.63950      .   S
    Zr17   O70       0.63950      .   S
    Zr42   O71       1.02269      .   S
    Zr0    O71       1.02269  1_556   S
    Zr43   O72       0.63960      .   S
    Zr16   O72       0.63960  1_455   S
    Zr43   O73       1.02282      .   S
    Zr1    O73       1.02282  1_556   S
    Zr41   O74       0.63860      .   S
    Zr17   O74       0.63860      .   S
    Zr40   O75       0.63881      .   S
    Zr16   O75       0.63881      .   S
    Zr29   O76       0.63618      .   S
    Zr11   O76       0.63618      .   S
    Zr29   O77       1.07001      .   S
    Zr7    O77       1.07001      .   S
    Zr28   O78       0.63622      .   S
    Zr10   O78       0.63622      .   S
    Zr28   O79       1.06972      .   S
    Zr6    O79       1.06972      .   S
    Zr34   O80       0.63998      .   S
    Zr12   O80       0.63998      .   S
    Zr34   O81       1.02426      .   S
    Zr6    O81       1.02426  1_545   S
    Zr35   O82       0.63986      .   S
    Zr13   O82       0.63986      .   S
    Zr35   O83       1.02268      .   S
    Zr7    O83       1.02268  1_545   S
    Zr11   O84       0.63062      .   S
    Zr31   O84       0.63062      .   S
    Zr10   O85       0.63069      .   S
    Zr30   O85       0.63069      .   S
    Zr12   O86       0.63878      .   S
    Zr32   O86       0.63878      .   S
    Zr13   O87       0.63873      .   S
    Zr33   O87       0.63873      .   S
    Zr7    O88       1.02011      .   S
    Zr49   O88       1.02011      .   S
    Zr7    O89       1.05616  1_545   S
    Zr47   O89       1.05616      .   S
    Zr6    O90       1.02119      .   S
    Zr48   O90       1.02119      .   S
    Zr6    O91       1.05305  1_545   S
    Zr46   O91       1.05305      .   S
    Zr31   O92       1.05290      .   S
    Zr3    O92       1.05290  1_565   S
    Zr30   O93       1.05674      .   S
    Zr2    O93       1.05674  1_565   S
    Zr32   O94       1.01987      .   S
    Zr2    O94       1.01987      .   S
    Zr33   O95       1.02148      .   S
    Zr3    O95       1.02148      .   S
    Zr48   O96       0.63865      .   S
    Zr20   O96       0.63865      .   S
    Zr49   O97       0.63874      .   S
    Zr21   O97       0.63874      .   S
    Zr47   O98       0.63052      .   S
    Zr19   O98       0.63052      .   S
    Zr46   O99       0.63057      .   S
    Zr18   O99       0.63057      .   S
    Zr3    O100      1.02438  1_565   S
    Zr51   O100      1.02438      .   S
    Zr3    O101      1.06931      .   S
    Zr45   O101      1.06931      .   S
    Zr2    O102      1.02258  1_565   S
    Zr50   O102      1.02258      .   S
    Zr2    O103      1.07006      .   S
    Zr44   O103      1.07006      .   S
    Zr20   O104      0.64003      .   S
    Zr50   O104      0.64003      .   S
    Zr21   O105      0.63972      .   S
    Zr51   O105      0.63972      .   S
    Zr19   O106      0.63628      .   S
    Zr45   O106      0.63628      .   S
    Zr18   O107      0.63616      .   S
    Zr44   O107      0.63616      .   S
    Zr9    O108      0.63880      .   S
    Zr25   O108      0.63880      .   S
    Zr9    O109      0.63959  1_655   S
    Zr26   O109      0.63959      .   S
    Zr8    O110      0.63865      .   S
    Zr24   O110      0.63865      .   S
    Zr8    O111      0.63987      .   S
    Zr27   O111      0.63987      .   S
    Zr25   O112      1.02007      .   S
    Zr1    O112      1.02007      .   S
    Zr24   O113      1.02038      .   S
    Zr0    O113      1.02038      .   S
    Zr53   O114      0.63624      .   S
    Zr23   O114      0.63624      .   S
    Zr53   O115      1.07006      .   S
    Zr0    O115      1.07006      .   S
    Zr52   O116      0.63604      .   S
    Zr22   O116      0.63604      .   S
    Zr52   O117      1.07200  1_455   S
    Zr1    O117      1.07200      .   S
    Zr23   O118      0.63054      .   S
    Zr55   O118      0.63054      .   S
    Zr22   O119      0.63069      .   S
    Zr54   O119      0.63069      .   S
    Zr0    O120      1.44587      .   S
    Zr5    O120      1.44587  1_554   S
    Zr1    O121      1.45226  1_656   S
    Zr4    O121      1.45226      .   S
    Zr2    O122      1.44736      .   S
    Zr6    O122      1.44736  1_545   S
    Zr3    O123      1.44740  1_565   S
    Zr7    O123      1.44740      .   S
    N124   O125      1.58862      .   S
    Zr21   O125      2.33156      .   S
    N124   O126      1.41383      .   S
    Zr23   O126      1.83303      .   S
    N127   O128      1.41402      .   S
    Zr14   O128      1.83330      .   S
    N127   O129      1.58856      .   S
    Zr12   O129      2.33142      .   S
    N130   O131      1.41440      .   S
    Zr10   O131      1.83408      .   S
    N130   O132      1.58845      .   S
    Zr8    O132      2.33122      .   S
    N133   O134      1.41593      .   S
    Zr11   O134      1.83689      .   S
    N133   O135      1.58841      .   S
    Zr9    O135      2.33128      .   S
    N136   O137      1.41324      .   S
    Zr15   O137      1.83174      .   S
    N136   O138      1.58865      .   S
    Zr13   O138      2.33153      .   S
    N139   O140      2.79011  1_455   S
    Zr3    O140      3.79277      .   S
    N139   O141      2.79009  1_566   S
    Zr6    O141      3.79290      .   S
    N142   O143      1.58866      .   S
    Zr20   O143      2.33161      .   S
    N142   O144      1.41334      .   S
    Zr22   O144      1.83192      .   S
    N145   O146      2.78975  1_556   S
    Zr5    O146      3.79226      .   S
    N145   O147      2.79006  1_545   S
    Zr1    O147      3.79314      .   S
    N148   O149      2.78971  1_565   S
    Zr4    O149      3.79258      .   S
    N148   O150      2.78960  1_554   S
    Zr0    O150      3.79221      .   S
    N151   O152      1.58575      .   S
    Zr17   O152      2.32900      .   S
    N151   O153      1.41620      .   S
    Zr19   O153      1.83430      .   S
    N154   O155      2.79405  1_566   S
    Zr7    O155      3.79944      .   S
    N154   O156      2.79374      .   S
    Zr2    O156      3.79919      .   S
    N157   O158      1.41577      .   S
    Zr18   O158      1.83682      .   S
    N157   O159      1.58849      .   S
    Zr16   O159      2.33090      .   S
