# CIF file generated by openbabel 2.4.90, see http://openbabel.sf.net
data_I
_chemical_name_common ''
_cell_length_a 9.0755
_cell_length_b 9.1395
_cell_length_c 18.989
_cell_angle_alpha 89.998
_cell_angle_beta 89.993
_cell_angle_gamma 70.226
_space_group_name_H-M_alt 'P 1'
_space_group_name_Hall 'P 1'
loop_
    _symmetry_equiv_pos_as_xyz
    x,y,z
loop_
    _atom_site_label
    _atom_site_type_symbol
    _atom_site_fract_x
    _atom_site_fract_y
    _atom_site_fract_z
    _atom_site_occupancy
    Ga0     Ga   0.03688   0.21092   0.18345   1.000
    Ga1     Ga   0.51815   0.29967   0.17722   1.000
    Ga2     Ga   0.36143   0.15166   0.91034   1.000
    Ga3     Ga   0.46947   0.28907   0.68349   1.000
    Ga4     Ga   0.98817   0.20008   0.67653   1.000
    Ga5     Ga   0.86141   0.65152   0.58955   1.000
    Ga6     Ga   0.96945   0.78890   0.81646   1.000
    Ga7     Ga   0.48809   0.70028   0.82277   1.000
    Ga8     Ga   0.64484   0.84831   0.08958   1.000
    Ga9     Ga   0.53683   0.71103   0.31653   1.000
    Ga10    Ga   0.01798   0.80003   0.32339   1.000
    Ga11    Ga   0.14488   0.34844   0.41042   1.000
