# CIF file generated by openbabel 2.4.90, see http://openbabel.sf.net
data_I
_chemical_name_common ''
_cell_length_a 9.0755
_cell_length_b 9.1395
_cell_length_c 18.989
_cell_angle_alpha 89.998
_cell_angle_beta 89.993
_cell_angle_gamma 70.226
_space_group_name_H-M_alt 'P 1'
_space_group_name_Hall 'P 1'
loop_
    _symmetry_equiv_pos_as_xyz
    x,y,z
loop_
    _atom_site_label
    _atom_site_type_symbol
    _atom_site_fract_x
    _atom_site_fract_y
    _atom_site_fract_z
    _atom_site_occupancy
    N0      N    0.20672   0.05493   0.33709   1.000
    N1      N    0.32436   0.49964   0.29999   1.000
    N2      N    0.35190   0.12113   0.08207   1.000
    N3      N    0.85194   0.62120   0.41717   1.000
    N4      N    0.70694   0.55514   0.16341   1.000
    N5      N    0.82417   0.99942   0.20028   1.000
    N6      N    0.79977   0.94547   0.66277   1.000
    N7      N    0.65440   0.87880   0.91717   1.000
    N8      N    0.68193   0.50050   0.69999   1.000
    N9      N    0.18192   0.00054   0.79968   1.000
    N10     N    0.15466   0.37922   0.58270   1.000
    N11     N    0.29930   0.44487   0.83657   1.000
    Zr12    Zr   0.14488   0.34844   0.41042   1.000
    O13     O    0.15133   0.36167   0.46511   1.000
    O14     O    0.16866   0.24802   0.39209   1.000
    O15     O    0.20756   0.39574   0.37744   1.000
    O16     O    0.04595   0.43030   0.40898   1.000
    Zr17    Zr   0.51815   0.29967   0.17722   1.000
    O18     O    0.61551   0.20580   0.18847   1.000
    O19     O    0.44884   0.36044   0.21544   1.000
    O20     O    0.46801   0.24641   0.14328   1.000
    O21     O    0.57321   0.38411   0.17010   1.000
    Zr22    Zr   0.86141   0.65152   0.58955   1.000
    O23     O    0.83757   0.75204   0.60783   1.000
    O24     O    0.79873   0.60426   0.62253   1.000
    O25     O    0.96044   0.56984   0.59094   1.000
    O26     O    0.85509   0.63843   0.53482   1.000
    Zr27    Zr   0.01798   0.80003   0.32339   1.000
    O28     O    0.94867   0.86061   0.28501   1.000
    O29     O    0.11550   0.70619   0.31210   1.000
    O30     O    0.07300   0.88422   0.33069   1.000
    O31     O    0.96791   0.74666   0.35692   1.000
    Zr32    Zr   0.48809   0.70028   0.82277   1.000
    O33     O    0.53824   0.75354   0.85653   1.000
    O34     O    0.55742   0.63961   0.78454   1.000
    O35     O    0.39067   0.79415   0.81152   1.000
    O36     O    0.43305   0.61584   0.82989   1.000
    Zr37    Zr   0.53683   0.71103   0.31653   1.000
    O38     O    0.43470   0.81815   0.32650   1.000
    O39     O    0.47597   0.63648   0.31219   1.000
    O40     O    0.63473   0.68569   0.34997   1.000
    O41     O    0.58742   0.67610   0.26692   1.000
    Zr42    Zr   0.46947   0.28907   0.68349   1.000
    O43     O    0.57163   0.18202   0.67347   1.000
    O44     O    0.53033   0.36362   0.68782   1.000
    O45     O    0.37168   0.31453   0.65000   1.000
    O46     O    0.41883   0.32396   0.73308   1.000
    Zr47    Zr   0.03688   0.21092   0.18345   1.000
    O48     O    0.08741   0.17598   0.23318   1.000
    O49     O    0.13475   0.18560   0.14982   1.000
    O50     O    0.97589   0.13639   0.18788   1.000
    O51     O    0.93485   0.31820   0.17363   1.000
    Zr52    Zr   0.64484   0.84831   0.08958   1.000
    O53     O    0.65121   0.86143   0.03484   1.000
    O54     O    0.54588   0.93015   0.09082   1.000
    O55     O    0.66870   0.74798   0.10803   1.000
    O56     O    0.70750   0.89558   0.12262   1.000
    Zr57    Zr   0.98817   0.20008   0.67653   1.000
    O58     O    0.89070   0.29394   0.68786   1.000
    O59     O    0.05742   0.13944   0.71492   1.000
    O60     O    0.03841   0.25358   0.64298   1.000
    O61     O    0.93324   0.11597   0.66922   1.000
    Zr62    Zr   0.96945   0.78890   0.81646   1.000
    O63     O    0.91905   0.82409   0.76669   1.000
    O64     O    0.87156   0.81427   0.84992   1.000
    O65     O    0.03035   0.86349   0.81206   1.000
    O66     O    0.07147   0.68172   0.82632   1.000
    Zr67    Zr   0.36143   0.15166   0.91034   1.000
    O68     O    0.46040   0.06981   0.90894   1.000
    O69     O    0.29873   0.10440   0.87731   1.000
    O70     O    0.35509   0.13852   0.96448   1.000
    O71     O    0.33756   0.25200   0.89191   1.000
loop_
    _geom_bond_atom_site_label_1
    _geom_bond_atom_site_label_2
    _geom_bond_distance
    _geom_bond_site_symmetry_2
    _ccdc_geom_bond_type
    Zr12   O13       1.04953      .   S
    N10    O13       2.23957      .   S
    Zr12   O14       0.93594      .   S
    N0     O14       1.97790      .   S
    Zr12   O15       1.03388      .   S
    N1     O15       2.20657      .   S
    Zr12   O16       0.95499      .   S
    N3     O16       2.02236  1_655   S
    Zr17   O18       1.02446      .   S
    N5     O18       2.18568  1_565   S
    Zr17   O19       0.99720      .   S
    N1     O19       2.12120      .   S
    Zr17   O20       1.00476      .   S
    N2     O20       2.14220      .   S
    Zr17   O21       1.06039      .   S
    N4     O21       2.28385      .   S
    Zr22   O23       0.93640      .   S
    N6     O23       1.98017      .   S
    Zr22   O24       1.03365      .   S
    N8     O24       2.20607      .   S
    Zr22   O25       0.95486      .   S
    N10    O25       2.02208  1_455   S
    Zr22   O26       1.04988      .   S
    N3     O26       2.24040      .   S
    Zr27   O28       0.99896  1_455   S
    N5     O28       2.12259      .   S
    Zr27   O29       1.02533      .   S
    N1     O29       2.18822      .   S
    Zr27   O30       1.05854      .   S
    N0     O30       2.28102  1_545   S
    Zr27   O31       0.99982  1_455   S
    N3     O31       2.13257      .   S
    Zr32   O33       1.00252      .   S
    N7     O33       2.13660      .   S
    Zr32   O34       0.99712      .   S
    N8     O34       2.12097      .   S
    Zr32   O35       1.02470      .   S
    N9     O35       2.18634  1_545   S
    Zr32   O36       1.06026      .   S
    N11    O36       2.28352      .   S
    Zr37   O38       1.11327      .   S
    N0     O38       2.44431  1_545   S
    Zr37   O39       1.01529      .   S
    N1     O39       2.16225      .   S
    Zr37   O40       1.05223      .   S
    N3     O40       2.25306      .   S
    Zr37   O41       1.04914      .   S
    N4     O41       2.33470      .   S
    Zr42   O43       1.11322      .   S
    N6     O43       2.44407  1_565   S
    Zr42   O44       1.01532      .   S
    N8     O44       2.16234      .   S
    Zr42   O45       1.05202      .   S
    N10    O45       2.25270      .   S
    Zr42   O46       1.04890      .   S
    N11    O46       2.33416      .   S
    Zr47   O48       1.05118      .   S
    N0     O48       2.34088      .   S
    Zr47   O49       1.05407      .   S
    N2     O49       2.25824      .   S
    Zr47   O50       1.01615  1_455   S
    N5     O50       2.16444  1_565   S
    Zr47   O51       1.11322  1_455   S
    N4     O51       2.44434      .   S
    Zr52   O53       1.05013      .   S
    N7     O53       2.24094  1_556   S
    Zr52   O54       0.95502      .   S
    N2     O54       2.02348  1_545   S
    Zr52   O55       0.93601      .   S
    N4     O55       1.97954      .   S
    Zr52   O56       1.03433      .   S
    N5     O56       2.20836      .   S
    Zr57   O58       1.02521      .   S
    N8     O58       2.18784      .   S
    Zr57   O59       0.99895  1_655   S
    N9     O59       2.12342      .   S
    Zr57   O60       1.00178  1_655   S
    N10    O60       2.13578      .   S
    Zr57   O61       1.05744      .   S
    N6     O61       2.27760  1_565   S
    Zr62   O63       1.05192      .   S
    N6     O63       2.34192      .   S
    Zr62   O64       1.05222      .   S
    N7     O64       2.25296      .   S
    Zr62   O65       1.01593  1_655   S
    N9     O65       2.16373  1_545   S
    Zr62   O66       1.11275  1_655   S
    N11    O66       2.44346      .   S
    Zr67   O68       0.95520      .   S
    N7     O68       2.02295  1_565   S
    Zr67   O69       1.03456      .   S
    N9     O69       2.20879      .   S
    Zr67   O70       1.03891      .   S
    N2     O70       2.23950  1_554   S
    Zr67   O71       0.93596      .   S
    N11    O71       1.97939      .   S
