# CIF file generated by openbabel 2.4.90, see http://openbabel.sf.net
data_I
_chemical_name_common 'VESTA_phase_1'
_cell_length_a 20.935
_cell_length_b 20.946
_cell_length_c 16.318
_cell_angle_alpha 80.949
_cell_angle_beta 81.04
_cell_angle_gamma 49.407
_space_group_name_H-M_alt 'P 1'
_space_group_name_Hall 'P 1'
loop_
    _symmetry_equiv_pos_as_xyz
    x,y,z
loop_
    _atom_site_label
    _atom_site_type_symbol
    _atom_site_fract_x
    _atom_site_fract_y
    _atom_site_fract_z
    _atom_site_occupancy
    Cd0     Cd   0.35686   0.39637   0.21026   1.000
    Cd1     Cd   0.35686   0.89636   0.21026   1.000
    Cd2     Cd   0.85685   0.39637   0.21026   1.000
    Cd3     Cd   0.85686   0.89636   0.21026   1.000
    Cd4     Cd   0.10400   0.14367   0.28961   1.000
    Cd5     Cd   0.10400   0.64366   0.28961   1.000
    Cd6     Cd   0.60400   0.14366   0.28961   1.000
    Cd7     Cd   0.60400   0.64365   0.28961   1.000
    Cd8     Cd   0.14310   0.10364   0.78978   1.000
    Cd9     Cd   0.14310   0.60363   0.78978   1.000
    Cd10    Cd   0.64310   0.10364   0.78978   1.000
    Cd11    Cd   0.64310   0.60363   0.78978   1.000
    Cd12    Cd   0.39596   0.35635   0.71042   1.000
    Cd13    Cd   0.39597   0.85634   0.71042   1.000
    Cd14    Cd   0.89597   0.35634   0.71042   1.000
    Cd15    Cd   0.89597   0.85633   0.71042   1.000
    Cd16    Cd   0.00813   0.49228   0.25003   1.000
    Cd17    Cd   0.00813   0.99227   0.25003   1.000
    Cd18    Cd   0.50813   0.49228   0.25004   1.000
    Cd19    Cd   0.50813   0.99227   0.25003   1.000
    Cd20    Cd   0.49183   0.00772   0.75000   1.000
    Cd21    Cd   0.49184   0.50771   0.70000   1.000
    Cd22    Cd   0.99183   0.00772   0.75000   1.000
    Cd23    Cd   0.99183   0.50771   0.75000   1.000
    H24     H    0.34772   0.36928   0.99630   1.000
    H25     H    0.34772   0.86928   0.99630   1.000
    H26     H    0.84772   0.36928   0.99632   1.000
    H27     H    0.84772   0.86927   0.99630   1.000
    H28     H    0.19727   0.41418   0.28021   1.000
    H29     H    0.19727   0.91417   0.28021   1.000
    H30     H    0.69727   0.41417   0.28021   1.000
    H31     H    0.69727   0.91416   0.28021   1.000
    H32     H    0.04118   0.00462   0.02655   1.000
    H33     H    0.04118   0.50461   0.02655   1.000
    H34     H    0.54118   0.00462   0.02655   1.000
    H35     H    0.54118   0.50461   0.02655   1.000
    H36     H    0.13025   0.15248   0.50375   1.000
    H37     H    0.13026   0.65247   0.50375   1.000
    H38     H    0.63025   0.15248   0.50375   1.000
    H39     H    0.63025   0.65247   0.50375   1.000
    H40     H    0.08727   0.30292   0.21971   1.000
    H41     H    0.08727   0.80291   0.21971   1.000
    H42     H    0.58726   0.30292   0.21971   1.000
    H43     H    0.58727   0.80291   0.21971   1.000
    H44     H    0.49538   0.45879   0.47300   1.000
    H45     H    0.49539   0.95878   0.47300   1.000
    H46     H    0.99539   0.45879   0.47339   1.000
    H47     H    0.99539   0.95878   0.47339   1.000
    H48     H    0.15224   0.13073   0.00372   1.000
    H49     H    0.15225   0.63072   0.00372   1.000
    H50     H    0.65224   0.13072   0.00372   1.000
    H51     H    0.65224   0.63071   0.00372   1.000
    H52     H    0.30270   0.08583   0.71982   1.000
    H53     H    0.30270   0.58582   0.71982   1.000
    H54     H    0.80269   0.08582   0.71982   1.000
    H55     H    0.80269   0.58581   0.71982   1.000
    H56     H    0.45878   0.49538   0.97348   1.000
    H57     H    0.45878   0.99537   0.97348   1.000
    H58     H    0.95878   0.49538   0.97348   1.000
    H59     H    0.95878   0.99537   0.97348   1.000
    H60     H    0.36971   0.34753   0.49628   1.000
    H61     H    0.36972   0.84752   0.49628   1.000
    H62     H    0.86971   0.34753   0.49628   1.000
    H63     H    0.86971   0.84752   0.49628   1.000
    H64     H    0.41270   0.19709   0.78032   1.000
    H65     H    0.41270   0.69708   0.78032   1.000
    H66     H    0.91269   0.19709   0.78032   1.000
    H67     H    0.91270   0.69708   0.78032   1.000
    H68     H    0.00458   0.04122   0.52664   1.000
    H69     H    0.00458   0.54120   0.52664   1.000
    H70     H    0.50458   0.04122   0.52664   1.000
    H71     H    0.50458   0.54121   0.52664   1.000
    C72     C    0.28705   0.40729   0.85153   1.000
    C73     C    0.28705   0.90728   0.85153   1.000
    C74     C    0.78704   0.40729   0.85153   1.000
    C75     C    0.78704   0.90728   0.85153   1.000
    C76     C    0.23700   0.42536   0.93309   1.000
    C77     C    0.23700   0.92535   0.93309   1.000
    C78     C    0.73699   0.42535   0.93309   1.000
    C79     C    0.73699   0.92535   0.93309   1.000
    C80     C    0.28105   0.39948   0.00000   1.000
    C81     C    0.28105   0.89947   0.00000   1.000
    C82     C    0.78104   0.39948   0.00000   1.000
    C83     C    0.78105   0.89947   0.00000   1.000
    C84     C    0.23812   0.41300   0.08180   1.000
    C85     C    0.23812   0.91299   0.08180   1.000
    C86     C    0.73811   0.41300   0.08180   1.000
    C87     C    0.73812   0.91299   0.08180   1.000
    C88     C    0.19671   0.41925   0.21299   1.000
    C89     C    0.19671   0.91924   0.21299   1.000
    C90     C    0.69671   0.41925   0.21000   1.000
    C91     C    0.69671   0.91924   0.21299   1.000
    C92     C    0.15205   0.44906   0.09020   1.000
    C93     C    0.15205   0.94905   0.09020   1.000
    C94     C    0.65204   0.44906   0.09020   1.000
    C95     C    0.65204   0.94905   0.09020   1.000
    C96     C    0.10760   0.47534   0.01989   1.000
    C97     C    0.10760   0.97533   0.01989   1.000
    C98     C    0.60759   0.47534   0.01989   1.000
    C99     C    0.60759   0.97533   0.01989   1.000
    C100    C    0.14974   0.46452   0.94126   1.000
    C101    C    0.14974   0.96450   0.94126   1.000
    C102    C    0.64974   0.46451   0.94126   1.000
    C103    C    0.64974   0.96450   0.94126   1.000
    C104    C    0.09718   0.49438   0.86869   1.000
    C105    C    0.09718   0.99437   0.86869   1.000
    C106    C    0.59718   0.49438   0.86869   1.000
    C107    C    0.59718   0.99436   0.86869   1.000
    C108    C    0.09199   0.21284   0.64850   1.000
    C109    C    0.09199   0.71283   0.64850   1.000
    C110    C    0.59198   0.21284   0.64850   1.000
    C111    C    0.59198   0.71283   0.64855   1.000
    C112    C    0.07404   0.26303   0.56695   1.000
    C113    C    0.07404   0.76301   0.56695   1.000
    C114    C    0.57403   0.26303   0.56695   1.000
    C115    C    0.57404   0.76301   0.56695   1.000
    C116    C    0.10017   0.21910   0.49607   1.000
    C117    C    0.10017   0.71909   0.49607   1.000
    C118    C    0.60016   0.21910   0.49607   1.000
    C119    C    0.60016   0.71909   0.49607   1.000
    C120    C    0.08710   0.26207   0.41818   1.000
    C121    C    0.08710   0.76206   0.41818   1.000
    C122    C    0.58709   0.26207   0.41810   1.000
    C123    C    0.58710   0.76206   0.41818   1.000
    C124    C    0.08173   0.30348   0.28690   1.000
    C125    C    0.08173   0.80347   0.28690   1.000
    C126    C    0.58172   0.30348   0.28696   1.000
    C127    C    0.58173   0.80347   0.28696   1.000
    C128    C    0.05117   0.34807   0.40977   1.000
    C129    C    0.05117   0.84806   0.40977   1.000
    C130    C    0.55116   0.34807   0.40977   1.000
    C131    C    0.55117   0.84806   0.40977   1.000
    C132    C    0.02455   0.39243   0.48007   1.000
    C133    C    0.02455   0.89242   0.48007   1.000
    C134    C    0.52455   0.39243   0.48000   1.000
    C135    C    0.52455   0.89242   0.48000   1.000
    C136    C    0.03498   0.35023   0.55874   1.000
    C137    C    0.03499   0.85022   0.55874   1.000
    C138    C    0.53499   0.35023   0.55874   1.000
    C139    C    0.53499   0.85022   0.55874   1.000
    C140    C    0.00498   0.40264   0.63128   1.000
    C141    C    0.00499   0.90263   0.63128   1.000
    C142    C    0.50499   0.40264   0.63128   1.000
    C143    C    0.50499   0.90263   0.63128   1.000
    C144    C    0.21292   0.09272   0.14850   1.000
    C145    C    0.21292   0.59271   0.14850   1.000
    C146    C    0.71291   0.09272   0.14850   1.000
    C147    C    0.71292   0.59271   0.14850   1.000
    C148    C    0.26297   0.07465   0.06694   1.000
    C149    C    0.26297   0.57464   0.06694   1.000
    C150    C    0.76296   0.07465   0.06694   1.000
    C151    C    0.76297   0.57464   0.06694   1.000
    C152    C    0.21891   0.10053   0.99606   1.000
    C153    C    0.21892   0.60052   0.99606   1.000
    C154    C    0.71891   0.10053   0.99606   1.000
    C155    C    0.71891   0.60052   0.99606   1.000
    C156    C    0.26184   0.08701   0.91823   1.000
    C157    C    0.26185   0.58700   0.91823   1.000
    C158    C    0.76184   0.08700   0.91823   1.000
    C159    C    0.76184   0.58699   0.91823   1.000
    C160    C    0.30325   0.08076   0.78704   1.000
    C161    C    0.30325   0.58075   0.78704   1.000
    C162    C    0.80325   0.08075   0.78704   1.000
    C163    C    0.80325   0.58074   0.78704   1.000
    C164    C    0.34792   0.05095   0.90983   1.000
    C165    C    0.34792   0.55094   0.90983   1.000
    C166    C    0.84791   0.05094   0.90983   1.000
    C167    C    0.84792   0.55093   0.90983   1.000
    C168    C    0.39237   0.02466   0.98014   1.000
    C169    C    0.39237   0.52465   0.98014   1.000
    C170    C    0.89236   0.02466   0.98014   1.000
    C171    C    0.89237   0.52465   0.98014   1.000
    C172    C    0.35022   0.03549   0.05877   1.000
    C173    C    0.35022   0.53548   0.05877   1.000
    C174    C    0.85022   0.03549   0.05877   1.000
    C175    C    0.85022   0.53548   0.05877   1.000
    C176    C    0.40278   0.00563   0.13134   1.000
    C177    C    0.40278   0.50562   0.13134   1.000
    C178    C    0.90278   0.00563   0.13134   1.000
    C179    C    0.90278   0.50562   0.13134   1.000
    C180    C    0.40797   0.28717   0.35149   1.000
    C181    C    0.40798   0.78716   0.35149   1.000
    C182    C    0.90797   0.28717   0.35149   1.000
    C183    C    0.90797   0.78716   0.35149   1.000
    C184    C    0.42592   0.23698   0.43308   1.000
    C185    C    0.42593   0.73697   0.43308   1.000
    C186    C    0.92592   0.23698   0.43308   1.000
    C187    C    0.92592   0.73697   0.43308   1.000
    C188    C    0.39980   0.28090   0.50397   1.000
    C189    C    0.39980   0.78089   0.50397   1.000
    C190    C    0.89980   0.28090   0.50397   1.000
    C191    C    0.89980   0.78089   0.50397   1.000
    C192    C    0.41287   0.23794   0.58185   1.000
    C193    C    0.41287   0.73793   0.58185   1.000
    C194    C    0.91287   0.23794   0.58185   1.000
    C195    C    0.91287   0.73793   0.58185   1.000
    C196    C    0.41824   0.19652   0.71308   1.000
    C197    C    0.41824   0.69651   0.71308   1.000
    C198    C    0.91824   0.19652   0.71308   1.000
    C199    C    0.91824   0.69651   0.71308   1.000
    C200    C    0.44880   0.15194   0.59020   1.000
    C201    C    0.44880   0.65193   0.59026   1.000
    C202    C    0.94880   0.15193   0.59027   1.000
    C203    C    0.94880   0.65192   0.59027   1.000
    C204    C    0.47542   0.10758   0.51996   1.000
    C205    C    0.47542   0.60757   0.51996   1.000
    C206    C    0.97542   0.10758   0.51996   1.000
    C207    C    0.97542   0.60757   0.51996   1.000
    C208    C    0.46498   0.14978   0.44129   1.000
    C209    C    0.46498   0.64977   0.44129   1.000
    C210    C    0.96498   0.14978   0.44129   1.000
    C211    C    0.96498   0.64977   0.44129   1.000
    C212    C    0.49498   0.09736   0.36875   1.000
    C213    C    0.49498   0.59735   0.36875   1.000
    C214    C    0.99498   0.09736   0.36875   1.000
    C215    C    0.99498   0.59735   0.36875   1.000
    N216    N    0.26480   0.39512   0.16125   1.000
    N217    N    0.26480   0.89511   0.16125   1.000
    N218    N    0.76480   0.39511   0.16125   1.000
    N219    N    0.76480   0.89510   0.16125   1.000
    N220    N    0.12756   0.45167   0.17454   1.000
    N221    N    0.12756   0.95166   0.17454   1.000
    N222    N    0.62756   0.45167   0.17454   1.000
    N223    N    0.62756   0.95166   0.17454   1.000
    N224    N    0.10546   0.23544   0.33870   1.000
    N225    N    0.10546   0.73543   0.33870   1.000
    N226    N    0.60545   0.23544   0.33870   1.000
    N227    N    0.60545   0.73543   0.33870   1.000
    N228    N    0.04914   0.37256   0.32540   1.000
    N229    N    0.04914   0.87255   0.32540   1.000
    N230    N    0.54913   0.37256   0.32542   1.000
    N231    N    0.54914   0.87255   0.32542   1.000
    N232    N    0.23516   0.10489   0.83878   1.000
    N233    N    0.23516   0.60488   0.83878   1.000
    N234    N    0.73516   0.10489   0.83878   1.000
    N235    N    0.73516   0.60488   0.83878   1.000
    N236    N    0.37240   0.04833   0.82549   1.000
    N237    N    0.37240   0.54833   0.82549   1.000
    N238    N    0.87240   0.04833   0.82549   1.000
    N239    N    0.87240   0.54832   0.82549   1.000
    N240    N    0.39451   0.26457   0.66132   1.000
    N241    N    0.39452   0.76456   0.66132   1.000
    N242    N    0.89451   0.26457   0.66132   1.000
    N243    N    0.89451   0.76456   0.66132   1.000
    N244    N    0.45083   0.12745   0.67462   1.000
    N245    N    0.45083   0.62744   0.67460   1.000
    N246    N    0.95082   0.12745   0.67462   1.000
    N247    N    0.95083   0.62744   0.67462   1.000
    O248    O    0.36607   0.34539   0.84990   1.000
    O249    O    0.36607   0.84538   0.84990   1.000
    O250    O    0.86607   0.34539   0.84990   1.000
    O251    O    0.86607   0.84538   0.84990   1.000
    O252    O    0.25196   0.45327   0.78434   1.000
    O253    O    0.25196   0.95326   0.78434   1.000
    O254    O    0.75195   0.45327   0.78434   1.000
    O255    O    0.75195   0.95325   0.78434   1.000
    O256    O    0.06501   0.06650   0.82960   1.000
    O257    O    0.06501   0.56649   0.82960   1.000
    O258    O    0.56500   0.06650   0.82961   1.000
    O259    O    0.56501   0.56649   0.82961   1.000
    O260    O    0.08033   0.44931   0.85360   1.000
    O261    O    0.08033   0.94930   0.85362   1.000
    O262    O    0.58033   0.44930   0.85361   1.000
    O263    O    0.58033   0.94929   0.85361   1.000
    O264    O    0.15349   0.13373   0.65024   1.000
    O265    O    0.15349   0.63372   0.65024   1.000
    O266    O    0.65348   0.13372   0.65024   1.000
    O267    O    0.65348   0.63372   0.65024   1.000
    O268    O    0.04639   0.24788   0.71573   1.000
    O269    O    0.04639   0.74787   0.71573   1.000
    O270    O    0.54639   0.24789   0.71573   1.000
    O271    O    0.54639   0.74788   0.71573   1.000
    O272    O    0.43300   0.43449   0.67031   1.000
    O273    O    0.43300   0.93448   0.67031   1.000
    O274    O    0.93300   0.43449   0.67031   1.000
    O275    O    0.93300   0.93448   0.67031   1.000
    O276    O    0.04991   0.41970   0.64637   1.000
    O277    O    0.04992   0.91969   0.64637   1.000
    O278    O    0.54992   0.41970   0.64637   1.000
    O279    O    0.54992   0.91969   0.64637   1.000
    O280    O    0.13389   0.15462   0.15013   1.000
    O281    O    0.13389   0.65461   0.15013   1.000
    O282    O    0.63389   0.15462   0.15013   1.000
    O283    O    0.63389   0.65461   0.15013   1.000
    O284    O    0.24801   0.04674   0.21569   1.000
    O285    O    0.24801   0.54673   0.21569   1.000
    O286    O    0.74801   0.04674   0.21569   1.000
    O287    O    0.74801   0.54673   0.21569   1.000
    O288    O    0.43495   0.43351   0.17042   1.000
    O289    O    0.43496   0.93350   0.17042   1.000
    O290    O    0.93495   0.43351   0.17042   1.000
    O291    O    0.93495   0.93349   0.17042   1.000
    O292    O    0.41964   0.05070   0.14641   1.000
    O293    O    0.41964   0.55069   0.14641   1.000
    O294    O    0.91964   0.05069   0.14641   1.000
    O295    O    0.91964   0.55068   0.14641   1.000
    O296    O    0.34647   0.36628   0.34979   1.000
    O297    O    0.34647   0.86627   0.34900   1.000
    O298    O    0.84646   0.36628   0.34979   1.000
    O299    O    0.84646   0.86627   0.34979   1.000
    O300    O    0.45357   0.25213   0.28430   1.000
    O301    O    0.45357   0.75212   0.28430   1.000
    O302    O    0.95357   0.25213   0.28430   1.000
    O303    O    0.95357   0.75212   0.28430   1.000
    O304    O    0.06696   0.06552   0.32972   1.000
    O305    O    0.06697   0.56551   0.32970   1.000
    O306    O    0.56697   0.06552   0.32970   1.000
    O307    O    0.56697   0.56551   0.32970   1.000
    O308    O    0.45004   0.08031   0.35366   1.000
    O309    O    0.45005   0.58030   0.35366   1.000
    O310    O    0.95005   0.08031   0.35366   1.000
    O311    O    0.95005   0.58029   0.35366   1.000
loop_
    _geom_bond_atom_site_label_1
    _geom_bond_atom_site_label_2
    _geom_bond_distance
    _geom_bond_site_symmetry_2
    _ccdc_geom_bond_type
    C83    C87       1.44350      .   S
    C83    C79       1.34660  1_554   S
    C83    H27       1.09030  1_554   S
    C80    C84       1.44350      .   S
    C80    C76       1.34661  1_554   S
    C80    H24       1.09029  1_554   S
    C81    C85       1.44350      .   S
    C81    C77       1.34661  1_554   S
    C81    H25       1.09028  1_554   S
    C82    C86       1.44350      .   S
    C82    C78       1.34660  1_554   S
    C82    H26       1.09031  1_554   S
    H48    C152      1.08878  1_554   S
    H49    C153      1.08877  1_554   S
    H50    C154      1.08879  1_554   S
    H51    C155      1.08879  1_554   S
    C99    H34       1.08868  1_565   S
    C99    C95       1.39731      .   S
    C99    C103      1.39811  1_554   S
    C98    H35       1.08873      .   S
    C98    C94       1.39731      .   S
    C98    C102      1.39811  1_554   S
    C97    H32       1.08868  1_565   S
    C97    C93       1.39730      .   S
    C97    C101      1.39811  1_554   S
    C96    H33       1.08874      .   S
    C96    C92       1.39730      .   S
    C96    C100      1.39811  1_554   S
    C172   C148      1.42689      .   S
    C172   C176      1.51045      .   S
    C172   C168      1.39811  1_554   S
    C175   C151      1.42689      .   S
    C175   C179      1.51044      .   S
    C175   C171      1.39810  1_554   S
    C174   C150      1.42690      .   S
    C174   C178      1.51045      .   S
    C174   C170      1.39811  1_554   S
    C173   C149      1.42688      .   S
    C173   C177      1.51043      .   S
    C173   C169      1.39811  1_554   S
    C150   C146      1.49011      .   S
    C150   C154      1.40235  1_554   S
    C149   C145      1.49010      .   S
    C149   C153      1.40235  1_554   S
    C148   C144      1.49010      .   S
    C148   C152      1.40235  1_554   S
    C151   C147      1.49011      .   S
    C151   C155      1.40235  1_554   S
    C84    C92       1.42150      .   S
    C84    N216      1.39056      .   S
    C85    C93       1.42151      .   S
    C85    N217      1.39056      .   S
    C86    C94       1.42149      .   S
    C86    N218      1.39056      .   S
    C87    C95       1.42149      .   S
    C87    N219      1.39056      .   S
    C92    N220      1.38827      .   S
    C93    N221      1.38827      .   S
    C95    N223      1.38827      .   S
    C94    N222      1.38827      .   S
    C178   O294      1.26880      .   S
    C178   O291      1.28429  1_545   S
    C179   O295      1.26880      .   S
    C179   O290      1.28395      .   S
    C176   O292      1.26880      .   S
    C176   O289      1.28429  1_545   S
    C177   O293      1.26879      .   S
    C177   O288      1.28397      .   S
    O295   Cd16      2.27223  1_655   S
    O294   Cd17      2.27222  1_645   S
    O293   Cd18      2.27236      .   S
    O292   Cd19      2.27223  1_545   S
    C144   O280      1.27455      .   S
    C144   O284      1.29124      .   S
    C145   O281      1.27455      .   S
    C145   O285      1.29124      .   S
    C146   O282      1.27454      .   S
    C146   O286      1.29124      .   S
    C147   O283      1.27454      .   S
    C147   O287      1.29123      .   S
    O283   Cd7       2.28112      .   S
    O282   Cd6       2.28111      .   S
    O281   Cd5       2.28113      .   S
    O280   Cd4       2.28113      .   S
    N217   Cd1       2.21519      .   S
    N217   C89       1.34981      .   S
    N216   Cd0       2.21520      .   S
    N216   C88       1.34981      .   S
    N218   C90       1.32510      .   S
    N218   Cd2       2.21520      .   S
    N219   Cd3       2.21518      .   S
    N219   C91       1.34982      .   S
    O289   Cd1       2.20581      .   S
    O288   Cd0       2.20581      .   S
    O290   Cd2       2.20577      .   S
    O291   Cd3       2.20577      .   S
    N220   C88       1.34909      .   S
    N220   Cd16      2.25721      .   S
    N223   C91       1.34907      .   S
    N223   Cd19      2.25719      .   S
    N222   C90       1.32272      .   S
    N222   Cd18      2.25725      .   S
    N221   C89       1.34910      .   S
    N221   Cd17      2.25721      .   S
    C90    H30       1.13502      .   S
    Cd1    O284      2.40969  1_565   S
    Cd1    O297      2.26849      .   S
    Cd2    O287      2.40938      .   S
    Cd2    O298      2.28063      .   S
    Cd3    O286      2.40970  1_565   S
    Cd3    O299      2.28063      .   S
    Cd0    O285      2.40938      .   S
    Cd0    O296      2.28061      .   S
    C89    H29       1.08642      .   S
    C88    H28       1.08642      .   S
    C91    H31       1.08642      .   S
    H43    C127      1.08651      .   S
    H42    C126      1.08651      .   S
    H40    C124      1.08553      .   S
    H41    C125      1.08553      .   S
    Cd19   N231      2.25745      .   S
    Cd19   O308      2.27180  1_565   S
    Cd16   N228      2.25729      .   S
    Cd16   O311      2.27153  1_455   S
    Cd17   N229      2.25728      .   S
    Cd17   O310      2.27178  1_465   S
    Cd18   N230      2.25737      .   S
    Cd18   O309      2.27143      .   S
    O303   Cd5       2.40798  1_655   S
    O303   C183      1.29131      .   S
    O302   Cd4       2.40799  1_655   S
    O302   C182      1.29131      .   S
    O301   Cd7       2.40804      .   S
    O301   C181      1.29129      .   S
    O300   Cd6       2.40804      .   S
    O300   C180      1.29129      .   S
    C125   N229      1.34956      .   S
    C125   N225      1.35020      .   S
    C124   N228      1.34956      .   S
    C124   N224      1.35020      .   S
    C126   N230      1.34919      .   S
    C126   N226      1.34970      .   S
    C127   N231      1.34919      .   S
    C127   N227      1.34970      .   S
    Cd4    O304      2.20558      .   S
    Cd4    N224      2.21501      .   S
    Cd7    O307      2.20555      .   S
    Cd7    N227      2.21499      .   S
    Cd6    O306      2.20555      .   S
    Cd6    N226      2.21498      .   S
    Cd5    O305      2.20555      .   S
    Cd5    N225      2.21500      .   S
    N228   C128      1.38852      .   S
    N229   C129      1.38852      .   S
    N230   C130      1.38822      .   S
    N231   C131      1.38822      .   S
    O305   C215      1.28393  1_455   S
    O306   C212      1.28398      .   S
    O307   C213      1.28398      .   S
    O304   C214      1.28382  1_455   S
    N227   C123      1.39081      .   S
    N224   C120      1.39081      .   S
    N226   C122      1.38956      .   S
    N225   C121      1.39081      .   S
    O297   C181      1.27434      .   S
    O298   C182      1.27460      .   S
    O299   C183      1.27460      .   S
    O296   C180      1.27460      .   S
    C181   C185      1.49007      .   S
    C183   C187      1.49007      .   S
    C182   C186      1.49007      .   S
    C180   C184      1.49007      .   S
    O310   C214      1.26899      .   S
    O309   C213      1.26899      .   S
    O308   C212      1.26900      .   S
    O311   C215      1.26899      .   S
    C215   C211      1.51025      .   S
    C214   C210      1.51025      .   S
    C213   C209      1.51027      .   S
    C212   C208      1.51027      .   S
    C128   C120      1.42148      .   S
    C128   C132      1.39720      .   S
    C129   C121      1.42147      .   S
    C129   C133      1.39720      .   S
    C130   C122      1.42152      .   S
    C130   C134      1.39621      .   S
    C131   C123      1.42147      .   S
    C131   C135      1.39621      .   S
    C122   C118      1.38973      .   S
    C121   C117      1.38863      .   S
    C123   C119      1.38863      .   S
    C120   C116      1.38863      .   S
    C186   C210      1.42708      .   S
    C186   C190      1.40236      .   S
    C187   C211      1.42707      .   S
    C187   C191      1.40236      .   S
    C185   C209      1.42707      .   S
    C185   C189      1.40235      .   S
    C184   C208      1.42707      .   S
    C184   C188      1.40235      .   S
    C208   C204      1.39857      .   S
    C209   C205      1.39857      .   S
    C210   C206      1.39856      .   S
    C211   C207      1.39857      .   S
    H45    C135      1.08872      .   S
    H44    C134      1.08872      .   S
    H47    C133      1.08880  1_655   S
    H46    C132      1.08880  1_655   S
    C134   C138      1.39954      .   S
    C135   C139      1.39954      .   S
    C133   C137      1.39857      .   S
    C132   C136      1.39857      .   S
    C117   H37       1.08883      .   S
    C117   C113      1.40221      .   S
    C116   H36       1.08883      .   S
    C116   C112      1.40221      .   S
    C118   H38       1.08883      .   S
    C118   C114      1.40222      .   S
    C119   H39       1.08883      .   S
    C119   C115      1.40222      .   S
    H60    C188      1.08881      .   S
    H63    C191      1.08882      .   S
    H62    C190      1.08882      .   S
    H61    C189      1.08882      .   S
    C191   C195      1.38850      .   S
    C190   C194      1.38849      .   S
    C189   C193      1.38849      .   S
    C188   C192      1.38849      .   S
    C205   H71       1.08879      .   S
    C205   C201      1.39720      .   S
    C204   H70       1.08879      .   S
    C204   C200      1.39635      .   S
    C206   H68       1.08883  1_655   S
    C206   C202      1.39733      .   S
    C207   H69       1.08880  1_655   S
    C207   C203      1.39734      .   S
    C136   C112      1.42707      .   S
    C136   C140      1.51027      .   S
    C139   C115      1.42707      .   S
    C139   C143      1.51029      .   S
    C138   C114      1.42705      .   S
    C138   C142      1.51030      .   S
    C137   C113      1.42707      .   S
    C137   C141      1.51027      .   S
    C113   C109      1.48951      .   S
    C115   C111      1.49019      .   S
    C114   C110      1.48953      .   S
    C112   C108      1.48952      .   S
    C194   C202      1.42149      .   S
    C194   N242      1.39066      .   S
    C192   C200      1.42149      .   S
    C192   N240      1.39065      .   S
    C193   C201      1.42148      .   S
    C193   N241      1.39065      .   S
    C195   C203      1.42147      .   S
    C195   N243      1.39067      .   S
    C200   N244      1.38929      .   S
    C201   N245      1.38806      .   S
    C203   N247      1.38821      .   S
    C202   N246      1.38821      .   S
    C143   O279      1.26900      .   S
    C143   O273      1.28387      .   S
    C142   O278      1.26901      .   S
    C142   O272      1.28387      .   S
    C141   O277      1.26899      .   S
    C141   O275      1.28383  1_455   S
    C140   O276      1.26901      .   S
    C140   O274      1.28382  1_455   S
    O277   Cd22      2.27176  1_465   S
    O276   Cd23      2.27151  1_455   S
    O279   Cd20      2.27176  1_565   S
    O278   Cd21      1.70348      .   S
    C108   O264      1.27458      .   S
    C108   O268      1.29186      .   S
    C109   O265      1.27459      .   S
    C109   O269      1.29186      .   S
    C110   O266      1.27458      .   S
    C110   O270      1.29184      .   S
    C111   O267      1.27460      .   S
    C111   O271      1.29117      .   S
    O267   Cd11      2.28074      .   S
    O265   Cd9       2.28075      .   S
    O264   Cd8       2.28075      .   S
    O266   Cd10      2.28073      .   S
    N243   Cd15      2.21512      .   S
    N243   C199      1.34988      .   S
    N242   Cd14      2.21510      .   S
    N242   C198      1.34988      .   S
    N241   Cd13      2.21512      .   S
    N241   C197      1.34988      .   S
    N240   Cd12      2.21512      .   S
    N240   C196      1.34986      .   S
    O272   Cd12      2.20561      .   S
    O273   Cd13      2.20559      .   S
    O274   Cd14      2.20561      .   S
    O275   Cd15      2.20560      .   S
    N245   Cd21      2.04451      .   S
    N245   C197      1.34936      .   S
    N244   C196      1.34920      .   S
    N244   Cd20      2.25739      .   S
    N246   C198      1.34920      .   S
    N246   Cd22      2.25736      .   S
    N247   C199      1.34919      .   S
    N247   Cd23      2.25738      .   S
    Cd12   O270      2.40801      .   S
    Cd12   O248      2.28112      .   S
    Cd15   O269      2.40795  1_655   S
    Cd15   O251      2.28113      .   S
    Cd14   O268      2.40796  1_655   S
    Cd14   O250      2.28113      .   S
    Cd13   O271      2.40800      .   S
    Cd13   O249      2.28112      .   S
    C198   H66       1.08634      .   S
    C196   H64       1.08634      .   S
    C197   H65       1.08634      .   S
    C199   H67       1.08634      .   S
    H55    C163      1.08642      .   S
    H54    C162      1.08642      .   S
    H52    C160      1.08642      .   S
    H53    C161      1.08642      .   S
    Cd20   N236      2.25720      .   S
    Cd20   O263      2.27217  1_545   S
    Cd22   N238      2.25722      .   S
    Cd22   O261      2.27229  1_645   S
    Cd23   N239      2.25722      .   S
    Cd23   O260      2.27203  1_655   S
    O252   Cd9       2.40941      .   S
    O252   C72       1.29122      .   S
    O253   Cd8       2.40973  1_565   S
    O253   C73       1.29123      .   S
    O254   Cd11      2.40940      .   S
    O254   C74       1.29124      .   S
    O255   Cd10      2.40971  1_565   S
    O255   C75       1.29123      .   S
    C163   N239      1.34910      .   S
    C163   N235      1.34981      .   S
    C162   N238      1.34910      .   S
    C162   N234      1.34981      .   S
    C161   N237      1.34909      .   S
    C161   N233      1.34979      .   S
    C160   N236      1.34909      .   S
    C160   N232      1.34981      .   S
    Cd8    O256      2.20576      .   S
    Cd8    N232      2.21511      .   S
    Cd9    O257      2.20574      .   S
    Cd9    N233      2.21514      .   S
    Cd10   O258      2.20578      .   S
    Cd10   N234      2.21515      .   S
    Cd11   O259      2.20580      .   S
    Cd11   N235      2.21515      .   S
    N236   C164      1.38827      .   S
    N237   C165      1.38827      .   S
    N238   C166      1.38827      .   S
    N239   C167      1.38827      .   S
    O256   C105      1.28435  1_545   S
    O257   C104      1.28404      .   S
    O258   C107      1.28431  1_545   S
    O259   C106      1.28397      .   S
    N232   C156      1.39057      .   S
    N233   C157      1.39056      .   S
    N234   C158      1.39056      .   S
    N235   C159      1.39056      .   S
    O250   C74       1.27454      .   S
    O251   C75       1.27455      .   S
    O248   C72       1.27454      .   S
    O249   C73       1.27453      .   S
    C72    C76       1.49012      .   S
    C73    C77       1.49012      .   S
    C75    C79       1.49010      .   S
    C74    C78       1.49011      .   S
    O260   C104      1.26891      .   S
    O262   C106      1.26882      .   S
    O263   C107      1.26884      .   S
    O261   C105      1.26880      .   S
    C107   C103      1.51043      .   S
    C106   C102      1.51043      .   S
    C105   C101      1.51044      .   S
    C104   C100      1.51043      .   S
    C167   C159      1.42149      .   S
    C167   C171      1.39732      .   S
    C166   C158      1.42149      .   S
    C166   C170      1.39732      .   S
    C165   C157      1.42149      .   S
    C165   C169      1.39731      .   S
    C164   C156      1.42149      .   S
    C164   C168      1.39731      .   S
    C158   C154      1.38828      .   S
    C157   C153      1.38828      .   S
    C156   C152      1.38828      .   S
    C159   C155      1.38827      .   S
    C79    C103      1.42689      .   S
    C78    C102      1.42688      .   S
    C77    C101      1.42689      .   S
    C76    C100      1.42689      .   S
    H57    C168      1.08867  1_565   S
    H56    C169      1.08875      .   S
    H58    C171      1.08873      .   S
    H59    C170      1.08866  1_565   S
    O252   Cd12      2.51760      .   S
    O253   Cd13      2.51762      .   S
    O254   Cd14      2.51770      .   S
    O255   Cd15      2.51771      .   S
    O268   Cd8       2.51804      .   S
    O269   Cd9       2.51805      .   S
    O270   Cd10      2.51806      .   S
    O271   Cd11      2.51806      .   S
    O284   Cd4       2.51769      .   S
    O285   Cd5       2.51768      .   S
    O286   Cd6       2.51760      .   S
    O287   Cd7       2.51759      .   S
    O300   Cd0       2.51790      .   S
    O301   Cd1       2.51789      .   S
    O302   Cd2       2.51790      .   S
    O303   Cd3       2.51788      .   S
