# CIF file generated by openbabel 2.4.90, see http://openbabel.sf.net
data_I
_chemical_name_common ''
_cell_length_a 18.27
_cell_length_b 20.957
_cell_length_c 18.59
_cell_angle_alpha 89.889
_cell_angle_beta 90.069
_cell_angle_gamma 89.959
_space_group_name_H-M_alt 'P 1'
_space_group_name_Hall 'P 1'
loop_
    _symmetry_equiv_pos_as_xyz
    x,y,z
loop_
    _atom_site_label
    _atom_site_type_symbol
    _atom_site_fract_x
    _atom_site_fract_y
    _atom_site_fract_z
    _atom_site_occupancy
    N0      N    0.97524   0.59444   0.40786   1.000
    N1      N    0.72543   0.40576   0.59218   1.000
    N2      N    0.47572   0.65632   0.90831   1.000
    N3      N    0.97571   0.65632   0.90832   1.000
    N4      N    0.47572   0.15632   0.90832   1.000
    N5      N    0.97572   0.15632   0.90832   1.000
    N6      N    0.72559   0.84520   0.09155   1.000
    N7      N    0.72543   0.90576   0.59218   1.000
    N8      N    0.47525   0.59444   0.40785   1.000
    N9      N    0.97525   0.09444   0.40786   1.000
    N10     N    0.22543   0.40576   0.59218   1.000
    N11     N    0.91218   0.89851   0.76877   1.000
    N12     N    0.41218   0.89851   0.76877   1.000
    N13     N    0.22543   0.90576   0.59218   1.000
    N14     N    0.16235   0.14844   0.73115   1.000
    N15     N    0.16235   0.64844   0.73115   1.000
    N16     N    0.66234   0.14844   0.73114   1.000
    N17     N    0.66234   0.64844   0.73114   1.000
    N18     N    0.16237   0.60226   0.23102   1.000
    N19     N    0.66236   0.10226   0.23100   1.000
    N20     N    0.66236   0.60226   0.23101   1.000
    N21     N    0.16237   0.10226   0.23102   1.000
    N22     N    0.47525   0.09444   0.40785   1.000
    N23     N    0.22560   0.84520   0.09160   1.000
    N24     N    0.72559   0.34520   0.09166   1.000
    N25     N    0.91218   0.39851   0.76877   1.000
    N26     N    0.41218   0.39851   0.76873   1.000
    N27     N    0.41211   0.85166   0.26912   1.000
    N28     N    0.91211   0.35166   0.26912   1.000
    N29     N    0.91211   0.85166   0.26914   1.000
    N30     N    0.41211   0.35166   0.26914   1.000
    N31     N    0.22560   0.34520   0.09166   1.000
    Zr32    Zr   0.56573   0.74056   0.09932   1.000
    O33     O    0.59549   0.69729   0.14019   1.000
    O34     O    0.61697   0.77212   0.09221   1.000
    O35     O    0.53507   0.71620   0.04165   1.000
    O36     O    0.52175   0.77618   0.15011   1.000
    Zr37    Zr   0.06566   0.01101   0.59946   1.000
    O38     O    0.09542   0.05402   0.64033   1.000
    O39     O    0.11690   0.97929   0.59263   1.000
    O40     O    0.02175   0.97492   0.65008   1.000
    O41     O    0.03487   0.03511   0.54162   1.000
    Zr42    Zr   0.06565   0.51101   0.59946   1.000
    O43     O    0.09542   0.55401   0.64033   1.000
    O44     O    0.02175   0.47492   0.65008   1.000
    O45     O    0.11690   0.47929   0.59263   1.000
    O46     O    0.03487   0.53511   0.54162   1.000
    Zr47    Zr   0.56565   0.01101   0.59946   1.000
    O48     O    0.52175   0.97492   0.65007   1.000
    O49     O    0.61689   0.97929   0.59263   1.000
    O50     O    0.53487   0.03511   0.54162   1.000
    O51     O    0.59541   0.05401   0.64033   1.000
    Zr52    Zr   0.06574   0.24057   0.09932   1.000
    O53     O    0.02176   0.27618   0.15010   1.000
    O54     O    0.11698   0.27212   0.09235   1.000
    O55     O    0.09550   0.19729   0.14019   1.000
    O56     O    0.03507   0.21620   0.04165   1.000
    Zr57    Zr   0.31549   0.76101   0.90062   1.000
    O58     O    0.34524   0.80403   0.85968   1.000
    O59     O    0.28487   0.78537   0.95828   1.000
    O60     O    0.27170   0.72489   0.84997   1.000
    O61     O    0.36685   0.72944   0.90759   1.000
    Zr62    Zr   0.31550   0.26101   0.90062   1.000
    O63     O    0.36685   0.22944   0.90759   1.000
    O64     O    0.27171   0.22489   0.84997   1.000
    O65     O    0.34524   0.30404   0.85967   1.000
    O66     O    0.28487   0.28538   0.95829   1.000
    Zr67    Zr   0.81549   0.26101   0.90062   1.000
    O68     O    0.86685   0.22944   0.90759   1.000
    O69     O    0.84524   0.30404   0.85968   1.000
    O70     O    0.78487   0.28538   0.95829   1.000
    O71     O    0.77170   0.22489   0.84997   1.000
    Zr72    Zr   0.81554   0.98907   0.40068   1.000
    O73     O    0.86677   0.02085   0.40747   1.000
    O74     O    0.84525   0.94606   0.35987   1.000
    O75     O    0.77173   0.02535   0.34995   1.000
    O76     O    0.78485   0.96503   0.45850   1.000
    Zr77    Zr   0.56573   0.24056   0.09932   1.000
    O78     O    0.61697   0.27212   0.09235   1.000
    O79     O    0.52175   0.27618   0.15011   1.000
    O80     O    0.59550   0.19729   0.14018   1.000
    O81     O    0.53507   0.21620   0.04165   1.000
    Zr82    Zr   0.81549   0.76101   0.90062   1.000
    O83     O    0.77170   0.72489   0.84997   1.000
    O84     O    0.78486   0.78537   0.95826   1.000
    O85     O    0.84523   0.80403   0.85968   1.000
    O86     O    0.86684   0.72944   0.90759   1.000
    Zr87    Zr   0.56565   0.51101   0.59946   1.000
    O88     O    0.59541   0.55401   0.64033   1.000
    O89     O    0.52175   0.47492   0.65007   1.000
    O90     O    0.53487   0.53511   0.54162   1.000
    O91     O    0.61689   0.47929   0.59263   1.000
    Zr92    Zr   0.31555   0.48908   0.40068   1.000
    O93     O    0.28486   0.46504   0.45850   1.000
    O94     O    0.27173   0.52535   0.34996   1.000
    O95     O    0.34526   0.44607   0.35987   1.000
    O96     O    0.36677   0.52085   0.40747   1.000
    Zr97    Zr   0.31555   0.98907   0.40068   1.000
    O98     O    0.36677   0.02085   0.40747   1.000
    O99     O    0.28485   0.96504   0.45850   1.000
    O100    O    0.27173   0.02535   0.34996   1.000
    O101    O    0.34526   0.94606   0.35987   1.000
    Zr102   Zr   0.06574   0.74056   0.09932   1.000
    O103    O    0.11697   0.77212   0.09222   1.000
    O104    O    0.09550   0.69729   0.14019   1.000
    O105    O    0.03507   0.71620   0.04165   1.000
    O106    O    0.02176   0.77618   0.15011   1.000
    Zr107   Zr   0.81555   0.48908   0.40068   1.000
    O108    O    0.77173   0.52535   0.34995   1.000
    O109    O    0.84526   0.44607   0.35987   1.000
    O110    O    0.86677   0.52085   0.40747   1.000
    O111    O    0.78485   0.46504   0.45850   1.000
loop_
    _geom_bond_atom_site_label_1
    _geom_bond_atom_site_label_2
    _geom_bond_distance
    _geom_bond_site_symmetry_2
    _ccdc_geom_bond_type
    Zr32   O33       1.30042      .   S
    N20    O33       2.87881      .   S
    Zr32   O34       1.15412      .   S
    N6     O34       2.50770      .   S
    Zr32   O35       1.31342      .   S
    N2     O35       2.98371  1_556   S
    Zr32   O36       1.44838      .   S
    N27    O36       3.38084      .   S
    Zr37   O38       1.29901      .   S
    N14    O38       2.87626      .   S
    Zr37   O39       1.15514  1_545   S
    N13    O39       2.51043      .   S
    Zr37   O40       1.44949  1_545   S
    N11    O40       3.38265  1_655   S
    Zr37   O41       1.31284      .   S
    N9     O41       2.98252  1_655   S
    Zr42   O43       1.29901      .   S
    N15    O43       2.87626      .   S
    Zr42   O44       1.44946      .   S
    N25    O44       3.38261  1_655   S
    Zr42   O45       1.15515      .   S
    N10    O45       2.51043      .   S
    Zr42   O46       1.31285      .   S
    N0     O46       2.98254  1_655   S
    Zr47   O48       1.44945  1_545   S
    N12    O48       3.38254      .   S
    Zr47   O49       1.15514  1_545   S
    N7     O49       2.51041      .   S
    Zr47   O50       1.31286      .   S
    N22    O50       2.98256      .   S
    Zr47   O51       1.29900      .   S
    N16    O51       2.87618      .   S
    Zr52   O53       1.44837      .   S
    N28    O53       3.38086  1_655   S
    Zr52   O54       1.15383      .   S
    N31    O54       2.50771      .   S
    Zr52   O55       1.30043      .   S
    N21    O55       2.87886      .   S
    Zr52   O56       1.31338      .   S
    N5     O56       2.98360  1_656   S
    Zr57   O58       1.29860      .   S
    N12    O58       2.87541      .   S
    Zr57   O59       1.31366      .   S
    N23    O59       2.98393  1_554   S
    Zr57   O60       1.44969      .   S
    N15    O60       3.38317      .   S
    Zr57   O61       1.15477      .   S
    N2     O61       2.50996      .   S
    Zr62   O63       1.15478      .   S
    N4     O63       2.50997      .   S
    Zr62   O64       1.44968      .   S
    N14    O64       3.38317      .   S
    Zr62   O65       1.29871      .   S
    N26    O65       2.87573      .   S
    Zr62   O66       1.31390      .   S
    N31    O66       2.98466  1_554   S
    Zr67   O68       1.15480      .   S
    N5     O68       2.51002      .   S
    Zr67   O69       1.29858      .   S
    N25    O69       2.87537      .   S
    Zr67   O70       1.31390      .   S
    N24    O70       2.98466  1_554   S
    Zr67   O71       1.44971      .   S
    N16    O71       3.38326      .   S
    Zr72   O73       1.15591  1_565   S
    N9     O73       2.51216      .   S
    Zr72   O74       1.29830      .   S
    N29    O74       2.87493      .   S
    Zr72   O75       1.45008  1_565   S
    N19    O75       3.38402      .   S
    Zr72   O76       1.31276      .   S
    N7     O76       2.98225      .   S
    Zr77   O78       1.15383      .   S
    N24    O78       2.50771      .   S
    Zr77   O79       1.44843      .   S
    N30    O79       3.38101      .   S
    Zr77   O80       1.30037      .   S
    N19    O80       2.87866      .   S
    Zr77   O81       1.31337      .   S
    N4     O81       2.98357  1_556   S
    Zr82   O83       1.44970      .   S
    N17    O83       3.38321      .   S
    Zr82   O84       1.31347      .   S
    N6     O84       2.98335  1_554   S
    Zr82   O85       1.29859      .   S
    N11    O85       2.87538      .   S
    Zr82   O86       1.15480      .   S
    N3     O86       2.51001      .   S
    Zr87   O88       1.29900      .   S
    N17    O88       2.87622      .   S
    Zr87   O89       1.44930      .   S
    N26    O89       3.38212      .   S
    Zr87   O90       1.31286      .   S
    N8     O90       2.98256      .   S
    Zr87   O91       1.15515      .   S
    N1     O91       2.51044      .   S
    Zr92   O93       1.31278      .   S
    N10    O93       2.98230      .   S
    Zr92   O94       1.45001      .   S
    N18    O94       3.38383      .   S
    Zr92   O95       1.29829      .   S
    N30    O95       2.87489      .   S
    Zr92   O96       1.15584      .   S
    N8     O96       2.51204      .   S
    Zr97   O98       1.15588  1_565   S
    N22    O98       2.51210      .   S
    Zr97   O99       1.31278      .   S
    N13    O99       2.98230      .   S
    Zr97   O100      1.45001  1_565   S
    N21    O100      3.38383      .   S
    Zr97   O101      1.29834      .   S
    N27    O101      2.87501      .   S
    Zr102  O103      1.15410      .   S
    N23    O103      2.50771      .   S
    Zr102  O104      1.30042      .   S
    N18    O104      2.87884      .   S
    Zr102  O105      1.31338      .   S
    N3     O105      2.98359  1_656   S
    Zr102  O106      1.44844      .   S
    N29    O106      3.38106  1_655   S
    Zr107  O108      1.45003      .   S
    N20    O108      3.38388      .   S
    Zr107  O109      1.29837      .   S
    N28    O109      2.87509      .   S
    Zr107  O110      1.15586      .   S
    N0     O110      2.51209      .   S
    Zr107  O111      1.31278      .   S
    N1     O111      2.98230      .   S
