# CIF file generated by openbabel 2.4.90, see http://openbabel.sf.net
data_I
_chemical_name_common ''
_cell_length_a 18.27
_cell_length_b 20.957
_cell_length_c 18.59
_cell_angle_alpha 89.889
_cell_angle_beta 90.069
_cell_angle_gamma 89.959
_space_group_name_H-M_alt 'P 1'
_space_group_name_Hall 'P 1'
loop_
    _symmetry_equiv_pos_as_xyz
    x,y,z
loop_
    _atom_site_label
    _atom_site_type_symbol
    _atom_site_fract_x
    _atom_site_fract_y
    _atom_site_fract_z
    _atom_site_occupancy
    Zr0     Zr   0.06566   0.01101   0.59946   1.000
    Zr1     Zr   0.06565   0.51101   0.59946   1.000
    Zr2     Zr   0.56565   0.01101   0.59946   1.000
    Zr3     Zr   0.56565   0.51101   0.59946   1.000
    Zr4     Zr   0.31555   0.48908   0.40068   1.000
    Zr5     Zr   0.31555   0.98907   0.40068   1.000
    Zr6     Zr   0.81555   0.48908   0.40068   1.000
    Zr7     Zr   0.81554   0.98907   0.40068   1.000
    Zr8     Zr   0.06574   0.24057   0.09932   1.000
    Zr9     Zr   0.06574   0.74056   0.09932   1.000
    Zr10    Zr   0.56573   0.24056   0.09932   1.000
    Zr11    Zr   0.56573   0.74056   0.09932   1.000
    Zr12    Zr   0.31550   0.26101   0.90062   1.000
    Zr13    Zr   0.31549   0.76101   0.90062   1.000
    Zr14    Zr   0.81549   0.26101   0.90062   1.000
    Zr15    Zr   0.81549   0.76101   0.90062   1.000
    N16     N    0.97524   0.59444   0.40786   1.000
    O17     O    0.00409   0.55920   0.48377   1.000
    O18     O    0.91799   0.55262   0.41427   1.000
    N19     N    0.72543   0.40576   0.59218   1.000
    O20     O    0.66814   0.44757   0.58580   1.000
    O21     O    0.75416   0.44100   0.51632   1.000
    N22     N    0.47572   0.65632   0.90831   1.000
    O23     O    0.41820   0.69786   0.91456   1.000
    O24     O    0.50440   0.69184   0.98398   1.000
    N25     N    0.97571   0.65632   0.90832   1.000
    O26     O    0.91820   0.69786   0.91457   1.000
    O27     O    0.00440   0.69184   0.98398   1.000
    N28     N    0.47572   0.15632   0.90832   1.000
    O29     O    0.41821   0.19786   0.91457   1.000
    O30     O    0.50440   0.19184   0.98398   1.000
    N31     N    0.97572   0.15632   0.90832   1.000
    O32     O    0.91820   0.19786   0.91457   1.000
    O33     O    0.00441   0.19184   0.98398   1.000
    N34     N    0.72559   0.84520   0.09155   1.000
    O35     O    0.75424   0.80974   0.01591   1.000
    O36     O    0.66821   0.80368   0.08510   1.000
    N37     N    0.72543   0.90576   0.59218   1.000
    O38     O    0.66814   0.94756   0.58580   1.000
    O39     O    0.75415   0.94099   0.51632   1.000
    N40     N    0.47525   0.59444   0.40785   1.000
    O41     O    0.50409   0.55920   0.48377   1.000
    O42     O    0.41799   0.55262   0.41427   1.000
    N43     N    0.97525   0.09444   0.40786   1.000
    O44     O    0.00409   0.05920   0.48377   1.000
    O45     O    0.91799   0.05262   0.41427   1.000
    N46     N    0.22543   0.40576   0.59218   1.000
    O47     O    0.16814   0.44757   0.58580   1.000
    O48     O    0.25416   0.44100   0.51632   1.000
    N49     N    0.91218   0.89851   0.76877   1.000
    O50     O    0.97784   0.93882   0.70069   1.000
    O51     O    0.87498   0.84705   0.81875   1.000
    N52     N    0.41218   0.89851   0.76877   1.000
    O53     O    0.47784   0.93882   0.70069   1.000
    O54     O    0.37498   0.84705   0.81874   1.000
    N55     N    0.22543   0.90576   0.59218   1.000
    O56     O    0.16814   0.94757   0.58580   1.000
    O57     O    0.25416   0.94100   0.51632   1.000
    N58     N    0.16235   0.14844   0.73115   1.000
    O59     O    0.22792   0.18877   0.79932   1.000
    O60     O    0.12518   0.09702   0.68120   1.000
    N61     N    0.16235   0.64844   0.73115   1.000
    O62     O    0.22791   0.68877   0.79932   1.000
    O63     O    0.12518   0.59702   0.68120   1.000
    N64     N    0.66234   0.14844   0.73114   1.000
    O65     O    0.72791   0.18877   0.79932   1.000
    O66     O    0.62518   0.09702   0.68120   1.000
    N67     N    0.66234   0.64844   0.73114   1.000
    O68     O    0.62517   0.59702   0.68120   1.000
    O69     O    0.72791   0.68877   0.79931   1.000
    N70     N    0.16237   0.60226   0.23102   1.000
    O71     O    0.22791   0.56162   0.29923   1.000
    O72     O    0.12526   0.65401   0.18106   1.000
    N73     N    0.66236   0.10226   0.23100   1.000
    O74     O    0.62526   0.15401   0.18105   1.000
    O75     O    0.72791   0.06163   0.29922   1.000
    N76     N    0.66236   0.60226   0.23101   1.000
    O77     O    0.62526   0.65401   0.18106   1.000
    O78     O    0.72791   0.56163   0.29923   1.000
    N79     N    0.16237   0.10226   0.23102   1.000
    O80     O    0.22792   0.06163   0.29923   1.000
    O81     O    0.12527   0.15401   0.18106   1.000
    N82     N    0.47525   0.09444   0.40785   1.000
    O83     O    0.50409   0.05920   0.48377   1.000
    O84     O    0.41800   0.05262   0.41427   1.000
    N85     N    0.22560   0.84520   0.09160   1.000
    O86     O    0.25424   0.80974   0.01593   1.000
    O87     O    0.16821   0.80367   0.08513   1.000
    N88     N    0.72559   0.34520   0.09166   1.000
    O89     O    0.75424   0.30974   0.01597   1.000
    O90     O    0.66821   0.30368   0.08539   1.000
    N91     N    0.91218   0.39851   0.76877   1.000
    O92     O    0.87498   0.34706   0.81875   1.000
    O93     O    0.97785   0.43882   0.70069   1.000
    N94     N    0.41218   0.39851   0.76873   1.000
    O95     O    0.47785   0.43882   0.70067   1.000
    O96     O    0.37498   0.34706   0.81873   1.000
    N97     N    0.41211   0.85166   0.26912   1.000
    O98     O    0.47777   0.81180   0.20089   1.000
    O99     O    0.37497   0.90305   0.31905   1.000
    N100    N    0.91211   0.35166   0.26912   1.000
    O101    O    0.87497   0.40305   0.31905   1.000
    O102    O    0.97778   0.31180   0.20089   1.000
    N103    N    0.91211   0.85166   0.26914   1.000
    O104    O    0.87496   0.90305   0.31906   1.000
    O105    O    0.97777   0.81180   0.20090   1.000
    N106    N    0.41211   0.35166   0.26914   1.000
    O107    O    0.47777   0.31180   0.20090   1.000
    O108    O    0.37497   0.40306   0.31906   1.000
    N109    N    0.22560   0.34520   0.09166   1.000
    O110    O    0.25425   0.30974   0.01597   1.000
    O111    O    0.16822   0.30368   0.08539   1.000
loop_
    _geom_bond_atom_site_label_1
    _geom_bond_atom_site_label_2
    _geom_bond_distance
    _geom_bond_site_symmetry_2
    _ccdc_geom_bond_type
    N16    O17       1.67583  1_655   S
    Zr1    O17       2.62570      .   S
    N16    O18       1.37026      .   S
    Zr6    O18       2.31172      .   S
    N19    O20       1.36939      .   S
    Zr3    O20       2.31030      .   S
    N19    O21       1.67568      .   S
    Zr6    O21       2.62556      .   S
    N22    O23       1.36927      .   S
    Zr13   O23       2.30954      .   S
    N22    O24       1.67639      .   S
    Zr11   O24       2.62684  1_554   S
    N25    O26       1.36929      .   S
    Zr15   O26       2.30960      .   S
    N25    O27       1.67631  1_655   S
    Zr9    O27       2.62677  1_554   S
    N28    O29       1.36926      .   S
    Zr12   O29       2.30957      .   S
    N28    O30       1.67630      .   S
    Zr10   O30       2.62675  1_554   S
    N31    O32       1.36930      .   S
    Zr14   O32       2.30960      .   S
    N31    O33       1.67632  1_655   S
    Zr8    O33       2.62677  1_554   S
    N34    O35       1.67595      .   S
    Zr15   O35       2.62694  1_556   S
    N34    O36       1.36830      .   S
    Zr11   O36       2.30823      .   S
    N37    O38       1.36937      .   S
    Zr2    O38       2.31027  1_545   S
    N37    O39       1.67565      .   S
    Zr7    O39       2.62553      .   S
    N40    O41       1.67585      .   S
    Zr3    O41       2.62571      .   S
    N40    O42       1.37022      .   S
    Zr4    O42       2.31169      .   S
    N43    O44       1.67582  1_655   S
    Zr0    O44       2.62568      .   S
    N43    O45       1.37028      .   S
    Zr7    O45       2.31181  1_565   S
    N46    O47       1.36939      .   S
    Zr1    O47       2.31029      .   S
    N46    O48       1.67569      .   S
    Zr4    O48       2.62556      .   S
    N49    O50       1.93802      .   S
    Zr0    O50       2.89897  1_445   S
    N49    O51       1.57689      .   S
    Zr15   O51       2.59718      .   S
    N52    O53       1.93795      .   S
    Zr2    O53       2.89890  1_545   S
    N52    O54       1.57691      .   S
    Zr13   O54       2.59719      .   S
    N55    O56       1.36939      .   S
    Zr0    O56       2.31029  1_545   S
    N55    O57       1.67568      .   S
    Zr5    O57       2.62556      .   S
    N58    O59       1.93839      .   S
    Zr12   O59       2.89936      .   S
    N58    O60       1.57734      .   S
    Zr0    O60       2.59803      .   S
    N61    O62       1.93839      .   S
    Zr13   O62       2.89937      .   S
    N61    O63       1.57734      .   S
    Zr1    O63       2.59802      .   S
    N64    O65       1.93845      .   S
    Zr14   O65       2.89942      .   S
    N64    O66       1.57728      .   S
    Zr2    O66       2.59799      .   S
    N67    O68       1.57731      .   S
    Zr3    O68       2.59801      .   S
    N67    O69       1.93841      .   S
    Zr15   O69       2.89940      .   S
    N70    O71       1.93861      .   S
    Zr4    O71       2.90002      .   S
    N70    O72       1.57851      .   S
    Zr9    O72       2.60084      .   S
    N73    O74       1.57838      .   S
    Zr10   O74       2.60074      .   S
    N73    O75       1.93873      .   S
    Zr7    O75       2.90017  1_565   S
    N76    O77       1.57848      .   S
    Zr11   O77       2.60084      .   S
    N76    O78       1.93864      .   S
    Zr6    O78       2.90007      .   S
    N79    O80       1.93861      .   S
    Zr5    O80       2.90002  1_565   S
    N79    O81       1.57851      .   S
    Zr8    O81       2.60087      .   S
    N82    O83       1.67585      .   S
    Zr2    O83       2.62572      .   S
    N82    O84       1.37025      .   S
    Zr5    O84       2.31176  1_565   S
    N85    O86       1.67634      .   S
    Zr13   O86       2.62732  1_556   S
    N85    O87       1.36835      .   S
    Zr9    O87       2.30820      .   S
    N88    O89       1.67683      .   S
    Zr14   O89       2.62780  1_556   S
    N88    O90       1.36803      .   S
    Zr10   O90       2.30765      .   S
    N91    O92       1.57688      .   S
    Zr14   O92       2.59717      .   S
    N91    O93       1.93801      .   S
    Zr1    O93       2.89891  1_455   S
    N94    O95       1.93768      .   S
    Zr3    O95       2.89860      .   S
    N94    O96       1.57712      .   S
    Zr12   O96       2.59741      .   S
    N97    O98       1.93713      .   S
    Zr11   O98       2.89675      .   S
    N97    O99       1.57678      .   S
    Zr5    O99       2.59668      .   S
    N100   O101      1.57683      .   S
    Zr6    O101      2.59673      .   S
    N100   O102      1.93715      .   S
    Zr8    O102      2.89675  1_455   S
    N103   O104      1.57673      .   S
    Zr7    O104      2.59660      .   S
    N103   O105      1.93729      .   S
    Zr9    O105      2.89687  1_455   S
    N106   O107      1.93724      .   S
    Zr10   O107      2.89686      .   S
    N106   O108      1.57670      .   S
    Zr4    O108      2.59659      .   S
    N109   O110      1.67684      .   S
    Zr12   O110      2.62780  1_556   S
    N109   O111      1.36803      .   S
    Zr8    O111      2.30765      .   S
