# CIF file generated by openbabel 2.4.90, see http://openbabel.sf.net
data_I
_chemical_name_common ''
_cell_length_a 24.165
_cell_length_b 15.381
_cell_length_c 17.043
_cell_angle_alpha 89.908
_cell_angle_beta 90.006
_cell_angle_gamma 91.729
_space_group_name_H-M_alt 'P 1'
_space_group_name_Hall 'P 1'
loop_
    _symmetry_equiv_pos_as_xyz
    x,y,z
loop_
    _atom_site_label
    _atom_site_type_symbol
    _atom_site_fract_x
    _atom_site_fract_y
    _atom_site_fract_z
    _atom_site_occupancy
    H0      H    0.33677   0.40099   0.82048   1.000
    H1      H    0.83681   0.40095   0.82047   1.000
    H2      H    0.29652   0.43355   0.95018   1.000
    H3      H    0.79656   0.43355   0.95015   1.000
    H4      H    0.28643   0.54321   0.92140   1.000
    H5      H    0.78645   0.54320   0.92141   1.000
    H6      H    0.46210   0.15949   0.69251   1.000
    H7      H    0.96208   0.15950   0.69250   1.000
    H8      H    0.45805   0.35656   0.71685   1.000
    H9      H    0.95788   0.35655   0.71687   1.000
    H10     H    0.48566   0.28106   0.78399   1.000
    H11     H    0.98554   0.28108   0.78400   1.000
    H12     H    0.05790   0.24208   0.69000   1.000
    H13     H    0.55793   0.24181   0.68990   1.000
    H14     H    0.01074   0.38247   0.58241   1.000
    H15     H    0.51088   0.38236   0.58238   1.000
    H16     H    0.06952   0.32120   0.56239   1.000
    H17     H    0.56960   0.32097   0.56232   1.000
    H18     H    0.31341   0.58979   0.77677   1.000
    H19     H    0.81344   0.58973   0.77670   1.000
    H20     H    0.34024   0.51060   0.71365   1.000
    H21     H    0.84030   0.51055   0.71362   1.000
    H22     H    0.42512   0.50158   0.79605   1.000
    H23     H    0.92517   0.50163   0.79605   1.000
    H24     H    0.37463   0.64404   0.89703   1.000
    H25     H    0.87462   0.64406   0.89699   1.000
    H26     H    0.44098   0.59966   0.90850   1.000
    H27     H    0.94097   0.59974   0.90848   1.000
    H28     H    0.39762   0.45450   0.93991   1.000
    H29     H    0.89765   0.45453   0.93987   1.000
    H30     H    0.41055   0.18493   0.56872   1.000
    H31     H    0.91056   0.18490   0.56868   1.000
    H32     H    0.41253   0.29834   0.58606   1.000
    H33     H    0.91247   0.29830   0.58603   1.000
    H34     H    0.01344   0.18495   0.55990   1.000
    H35     H    0.51342   0.18483   0.55980   1.000
    H36     H    0.41304   0.09855   0.31946   1.000
    H37     H    0.91305   0.09854   0.31944   1.000
    H38     H    0.45315   0.06684   0.44949   1.000
    H39     H    0.95314   0.06684   0.44948   1.000
    H40     H    0.46365   0.95714   0.42153   1.000
    H41     H    0.96365   0.95714   0.42153   1.000
    H42     H    0.28795   0.34059   0.19200   1.000
    H43     H    0.78796   0.34054   0.19211   1.000
    H44     H    0.29247   0.14362   0.21738   1.000
    H45     H    0.79245   0.14356   0.21734   1.000
    H46     H    0.26468   0.21912   0.28415   1.000
    H47     H    0.76468   0.21905   0.28413   1.000
    H48     H    0.19221   0.25753   0.18996   1.000
    H49     H    0.69221   0.25752   0.18990   1.000
    H50     H    0.23972   0.11709   0.08306   1.000
    H51     H    0.73969   0.11708   0.08304   1.000
    H52     H    0.18074   0.17791   0.06272   1.000
    H53     H    0.68073   0.17791   0.06271   1.000
    H54     H    0.43688   0.90971   0.27699   1.000
    H55     H    0.93688   0.90969   0.27700   1.000
    H56     H    0.40982   0.98840   0.21336   1.000
    H57     H    0.90985   0.98838   0.21335   1.000
    H58     H    0.32488   0.99714   0.29573   1.000
    H59     H    0.82490   0.99717   0.29570   1.000
    H60     H    0.37585   0.85551   0.39753   1.000
    H61     H    0.87585   0.85550   0.39748   1.000
    H62     H    0.30932   0.89925   0.40866   1.000
    H63     H    0.80932   0.89923   0.40862   1.000
    H64     H    0.35214   0.04499   0.43913   1.000
    H65     H    0.85213   0.04497   0.43910   1.000
    H66     H    0.33943   0.31513   0.06837   1.000
    H67     H    0.83941   0.31512   0.06837   1.000
    H68     H    0.33773   0.20176   0.08623   1.000
    H69     H    0.83771   0.20174   0.08619   1.000
    H70     H    0.23648   0.31454   0.05979   1.000
    H71     H    0.73647   0.31453   0.05970   1.000
    H72     H    0.16320   0.59906   0.17953   1.000
    H73     H    0.66324   0.59902   0.17952   1.000
    H74     H    0.20345   0.56646   0.04984   1.000
    H75     H    0.70348   0.56646   0.04981   1.000
    C76     C    0.57075   0.37357   0.71991   1.000
    C77     C    0.49187   0.24706   0.55419   1.000
    C78     C    0.99185   0.24713   0.55422   1.000
    C79     C    0.48685   0.26101   0.46592   1.000
    H80     H    0.21355   0.45681   0.07858   1.000
    H81     H    0.71357   0.45680   0.07852   1.000
    H82     H    0.03793   0.84051   0.30749   1.000
    H83     H    0.53790   0.84051   0.30748   1.000
    H84     H    0.04214   0.64347   0.28312   1.000
    H85     H    0.54197   0.64344   0.28314   1.000
    H86     H    0.01448   0.71893   0.21599   1.000
    H87     H    0.51435   0.71893   0.21600   1.000
    H88     H    0.44206   0.75815   0.31002   1.000
    H89     H    0.94210   0.75789   0.30991   1.000
    H90     H    0.48914   0.61763   0.41762   1.000
    H91     H    0.98928   0.61753   0.41758   1.000
    H92     H    0.43040   0.67900   0.43767   1.000
    H93     H    0.93049   0.67879   0.43758   1.000
    H94     H    0.18656   0.41027   0.22320   1.000
    H95     H    0.68658   0.41022   0.22322   1.000
    H96     H    0.15970   0.48946   0.28638   1.000
    H97     H    0.65976   0.48941   0.28630   1.000
    H98     H    0.07483   0.49839   0.20395   1.000
    H99     H    0.57489   0.49844   0.20395   1.000
    H100    H    0.12537   0.35596   0.10300   1.000
    H101    H    0.62536   0.35598   0.10296   1.000
    H102    H    0.05902   0.40029   0.09152   1.000
    H103    H    0.55902   0.40037   0.09150   1.000
    H104    H    0.10235   0.54548   0.06012   1.000
    H105    H    0.60238   0.54552   0.06007   1.000
    H106    H    0.08943   0.81513   0.43132   1.000
    H107    H    0.58943   0.81509   0.43127   1.000
    C108    C    0.16064   0.46770   0.22497   1.000
    C109    C    0.66069   0.46767   0.22493   1.000
    C110    C    0.10206   0.44260   0.19737   1.000
    C111    C    0.60209   0.44262   0.19735   1.000
    C112    C    0.07565   0.36804   0.24520   1.000
    H113    H    0.08754   0.70173   0.41397   1.000
    H114    H    0.58748   0.70169   0.41394   1.000
    H115    H    0.48657   0.81516   0.44011   1.000
    H116    H    0.98655   0.81505   0.44005   1.000
    H117    H    0.08696   0.90147   0.68056   1.000
    H118    H    0.58696   0.90146   0.68050   1.000
    H119    H    0.04686   0.93317   0.55052   1.000
    H120    H    0.54684   0.93317   0.55051   1.000
    H121    H    0.03634   0.04287   0.57847   1.000
    H122    H    0.53634   0.04287   0.57848   1.000
    H123    H    0.21204   0.65946   0.80789   1.000
    H124    H    0.71205   0.65941   0.80791   1.000
    H125    H    0.20754   0.85644   0.78267   1.000
    H126    H    0.70752   0.85638   0.78263   1.000
    H127    H    0.23532   0.78096   0.71587   1.000
    H128    H    0.73531   0.78089   0.71585   1.000
    H129    H    0.30778   0.74248   0.81005   1.000
    H130    H    0.80778   0.74247   0.81004   1.000
    H131    H    0.26030   0.88293   0.91696   1.000
    H132    H    0.76027   0.88292   0.91693   1.000
    H133    H    0.31927   0.82211   0.93729   1.000
    H134    H    0.81925   0.82211   0.93727   1.000
    H135    H    0.06311   0.09032   0.72300   1.000
    H136    H    0.56312   0.09030   0.72301   1.000
    H137    H    0.09015   0.00000   0.78665   1.000
    H138    H    0.59018   0.00000   0.78664   1.000
    H139    H    0.17510   0.00000   0.70400   1.000
    H140    H    0.67511   0.00000   0.70420   1.000
    H141    H    0.12414   0.14452   0.60252   1.000
    H142    H    0.62414   0.14451   0.60248   1.000
    H143    H    0.19067   0.10079   0.59138   1.000
    H144    H    0.69067   0.10077   0.59130   1.000
    H145    H    0.14786   0.95505   0.56090   1.000
    H146    H    0.64785   0.95503   0.56088   1.000
    H147    H    0.16058   0.68488   0.93163   1.000
    H148    H    0.66056   0.68487   0.93163   1.000
    H149    H    0.16228   0.79826   0.91381   1.000
    H150    H    0.66227   0.79824   0.91377   1.000
    H151    H    0.26353   0.68548   0.94021   1.000
    H152    H    0.76351   0.68547   0.94021   1.000
    C153    C    0.25327   0.43995   0.80395   1.000
    C154    C    0.75331   0.43994   0.80394   1.000
    C155    C    0.31313   0.46045   0.82668   1.000
    C156    C    0.81317   0.46042   0.82666   1.000
    C157    C    0.31337   0.48732   0.91390   1.000
    C158    C    0.81340   0.48732   0.91392   1.000
    C159    C    0.38644   0.21862   0.72380   1.000
    C160    C    0.88639   0.21858   0.72383   1.000
    C161    C    0.44259   0.22258   0.68385   1.000
    C162    C    0.94254   0.22257   0.68384   1.000
    C163    C    0.47939   0.29448   0.72134   1.000
    C164    C    0.97928   0.29452   0.72135   1.000
    C165    C    0.03589   0.30298   0.67984   1.000
    C166    C    0.53600   0.30280   0.67979   1.000
    C167    C    0.02910   0.31860   0.59171   1.000
    C168    C    0.52919   0.31844   0.59167   1.000
    C169    C    0.33932   0.53234   0.77506   1.000
    C170    C    0.83936   0.53231   0.77502   1.000
    C171    C    0.39791   0.55740   0.80264   1.000
    C172    C    0.89794   0.55742   0.80262   1.000
    C173    C    0.42435   0.63193   0.75475   1.000
    C174    C    0.92436   0.63197   0.75474   1.000
    C175    C    0.39824   0.58445   0.88978   1.000
    C176    C    0.89825   0.58449   0.88975   1.000
    C177    C    0.37230   0.51279   0.94180   1.000
    C178    C    0.87232   0.51281   0.94184   1.000
    C179    C    0.36900   0.54049   0.02793   1.000
    C180    C    0.86901   0.54048   0.02790   1.000
    C181    C    0.43541   0.23829   0.59490   1.000
    C182    C    0.93538   0.23828   0.59497   1.000
    C183    C    0.07045   0.37391   0.72002   1.000
    O184    O    0.60413   0.11817   0.45900   1.000
    O185    O    0.12928   0.98235   0.42182   1.000
    O186    O    0.62927   0.98234   0.42179   1.000
    O187    O    0.33354   0.86293   0.70640   1.000
    O188    O    0.83353   0.86292   0.70639   1.000
    O189    O    0.33338   0.94435   0.81411   1.000
    O190    O    0.83337   0.94434   0.81411   1.000
    O191    O    0.28049   0.78216   0.07345   1.000
    C192    C    0.98686   0.26104   0.46593   1.000
    C193    C    0.99670   0.06000   0.30368   1.000
    C194    C    0.49670   0.06000   0.30367   1.000
    C195    C    0.43679   0.03924   0.32613   1.000
    C196    C    0.93680   0.03923   0.32612   1.000
    C197    C    0.43654   0.01277   0.41358   1.000
    C198    C    0.93653   0.01276   0.41357   1.000
    C199    C    0.36368   0.28171   0.22370   1.000
    C200    C    0.86368   0.28160   0.22377   1.000
    C201    C    0.30756   0.27757   0.18370   1.000
    C202    C    0.80756   0.27751   0.18300   1.000
    C203    C    0.27095   0.20555   0.22156   1.000
    C204    C    0.77094   0.20549   0.22154   1.000
    C205    C    0.21434   0.19670   0.18009   1.000
    C206    C    0.71433   0.19668   0.18008   1.000
    C207    C    0.22117   0.18085   0.09203   1.000
    C208    C    0.72116   0.18084   0.09202   1.000
    C209    C    0.41079   0.96694   0.27491   1.000
    C210    C    0.91081   0.96693   0.27490   1.000
    C211    C    0.35225   0.94154   0.30262   1.000
    C212    C    0.85225   0.94154   0.30259   1.000
    C213    C    0.32589   0.86665   0.25528   1.000
    C214    C    0.82589   0.86668   0.25523   1.000
    C215    C    0.35200   0.91482   0.38988   1.000
    C216    C    0.85200   0.91481   0.38985   1.000
    C217    C    0.37765   0.98692   0.44100   1.000
    C218    C    0.87764   0.98690   0.44147   1.000
    C219    C    0.38101   0.95959   0.52767   1.000
    C220    C    0.88100   0.95957   0.52765   1.000
    C221    C    0.31471   0.26170   0.09490   1.000
    C222    C    0.81470   0.26167   0.09488   1.000
    C223    C    0.17994   0.12580   0.22078   1.000
    C224    C    0.67992   0.12578   0.22077   1.000
    C225    C    0.25823   0.25250   0.05421   1.000
    C226    C    0.75822   0.25248   0.05420   1.000
    C227    C    0.26318   0.23866   0.96593   1.000
    C228    C    0.76317   0.23866   0.96592   1.000
    C229    C    0.24669   0.56006   0.19606   1.000
    C230    C    0.74674   0.56005   0.19604   1.000
    C231    C    0.18683   0.53959   0.17334   1.000
    C232    C    0.68688   0.53956   0.17331   1.000
    C233    C    0.18661   0.51269   0.08607   1.000
    C234    C    0.68664   0.51269   0.08600   1.000
    C235    C    0.11362   0.78144   0.27617   1.000
    C236    C    0.61357   0.78139   0.27615   1.000
    C237    C    0.05747   0.77745   0.31616   1.000
    C238    C    0.55741   0.77743   0.31614   1.000
    C239    C    0.02074   0.70549   0.27864   1.000
    C240    C    0.52062   0.70551   0.27860   1.000
    C241    C    0.46401   0.69717   0.32020   1.000
    C242    C    0.96413   0.69701   0.32014   1.000
    C243    C    0.47082   0.68154   0.40832   1.000
    C244    C    0.97092   0.68140   0.40827   1.000
    C245    C    0.57565   0.36808   0.24524   1.000
    C246    C    0.10175   0.41553   0.11024   1.000
    C247    C    0.60175   0.41557   0.11021   1.000
    C248    C    0.12768   0.48720   0.05815   1.000
    C249    C    0.62770   0.48723   0.05812   1.000
    C250    C    0.13099   0.45953   0.97209   1.000
    C251    C    0.63101   0.45952   0.97206   1.000
    C252    C    0.06462   0.76174   0.40503   1.000
    C253    C    0.56458   0.76173   0.40501   1.000
    C254    C    0.42928   0.62638   0.28008   1.000
    C255    C    0.92961   0.62603   0.27996   1.000
    C256    C    0.00815   0.75287   0.44577   1.000
    C257    C    0.50813   0.75293   0.44580   1.000
    C258    C    0.01314   0.73896   0.53406   1.000
    C259    C    0.51314   0.73898   0.53408   1.000
    C260    C    0.50331   0.94000   0.69633   1.000
    C261    C    0.00000   0.94000   0.69632   1.000
    C262    C    0.06320   0.96078   0.67388   1.000
    C263    C    0.56321   0.96077   0.67387   1.000
    C264    C    0.06347   0.98725   0.58643   1.000
    C265    C    0.56346   0.98724   0.58642   1.000
    C266    C    0.13631   0.71838   0.77624   1.000
    C267    C    0.63631   0.71828   0.77622   1.000
    C268    C    0.19243   0.72248   0.81631   1.000
    C269    C    0.69243   0.72243   0.81630   1.000
    C270    C    0.22906   0.79451   0.77846   1.000
    C271    C    0.72904   0.79446   0.77844   1.000
    C272    C    0.28566   0.80332   0.81992   1.000
    C273    C    0.78565   0.80330   0.81991   1.000
    C274    C    0.27884   0.81917   0.90798   1.000
    C275    C    0.77882   0.81916   0.90797   1.000
    C276    C    0.08919   0.03308   0.72510   1.000
    C277    C    0.58920   0.03307   0.72509   1.000
    C278    C    0.14774   0.05847   0.69741   1.000
    C279    C    0.64775   0.05848   0.69738   1.000
    C280    C    0.17411   0.13334   0.74477   1.000
    C281    C    0.67411   0.13336   0.74470   1.000
    C282    C    0.14799   0.08520   0.61015   1.000
    C283    C    0.64799   0.08519   0.61012   1.000
    C284    C    0.12235   0.01311   0.55853   1.000
    C285    C    0.62235   0.01310   0.55851   1.000
    C286    C    0.11900   0.04044   0.47235   1.000
    C287    C    0.61899   0.04042   0.47233   1.000
    C288    C    0.18530   0.73833   0.90512   1.000
    C289    C    0.68528   0.73831   0.90510   1.000
    C290    C    0.32007   0.87422   0.77922   1.000
    C291    C    0.82006   0.87420   0.77921   1.000
    C292    C    0.24178   0.74752   0.94580   1.000
    C293    C    0.74176   0.74751   0.94570   1.000
    C294    C    0.23683   0.76135   0.03408   1.000
    C295    C    0.73681   0.76135   0.03407   1.000
    O296    O    0.23621   0.35973   0.79986   1.000
    O297    O    0.73622   0.35974   0.79986   1.000
    O298    O    0.36141   0.28828   0.73670   1.000
    O299    O    0.86137   0.28824   0.73670   1.000
    O300    O    0.36379   0.14513   0.74608   1.000
    O301    O    0.86376   0.14509   0.74608   1.000
    O302    O    0.22224   0.50379   0.79350   1.000
    O303    O    0.72230   0.50381   0.79351   1.000
    O304    O    0.39142   0.68266   0.72005   1.000
    O305    O    0.89142   0.68267   0.72003   1.000
    O306    O    0.47700   0.63800   0.75673   1.000
    O307    O    0.97700   0.63810   0.75675   1.000
    O308    O    0.35417   0.61834   0.04027   1.000
    O309    O    0.85418   0.61832   0.04028   1.000
    O310    O    0.37930   0.48272   0.07889   1.000
    O311    O    0.87932   0.48266   0.07882   1.000
    O312    O    0.08352   0.36319   0.79315   1.000
    O313    O    0.58343   0.36314   0.79322   1.000
    O314    O    0.08430   0.44345   0.68437   1.000
    O315    O    0.58517   0.44268   0.68400   1.000
    O316    O    0.03051   0.28187   0.42651   1.000
    O317    O    0.53050   0.28186   0.42648   1.000
    O318    O    0.43962   0.25192   0.43327   1.000
    O319    O    0.93963   0.25192   0.43327   1.000
    O320    O    0.01369   0.14029   0.29970   1.000
    O321    O    0.51369   0.14029   0.29974   1.000
    O322    O    0.38883   0.21210   0.23658   1.000
    O323    O    0.88882   0.21199   0.23657   1.000
    O324    O    0.38620   0.35515   0.24616   1.000
    O325    O    0.88620   0.35504   0.24616   1.000
    O326    O    0.02783   0.99628   0.29339   1.000
    O327    O    0.52782   0.99629   0.29339   1.000
    O328    O    0.35883   0.81709   0.21940   1.000
    O329    O    0.85884   0.81716   0.21932   1.000
    O330    O    0.27333   0.85904   0.25890   1.000
    O331    O    0.77333   0.85903   0.25891   1.000
    O332    O    0.39587   0.88184   0.54050   1.000
    O333    O    0.89586   0.88182   0.54040   1.000
    O334    O    0.37073   0.01766   0.57821   1.000
    O335    O    0.87072   0.01765   0.57819   1.000
    O336    O    0.16647   0.13707   0.29360   1.000
    O337    O    0.66646   0.13706   0.29300   1.000
    O338    O    0.16663   0.05566   0.18589   1.000
    O339    O    0.66663   0.05564   0.18588   1.000
    O340    O    0.21952   0.21785   0.92656   1.000
    O341    O    0.71951   0.21784   0.92655   1.000
    O342    O    0.31038   0.24795   0.93321   1.000
    O343    O    0.81037   0.24795   0.93321   1.000
    O344    O    0.26379   0.64026   0.20013   1.000
    O345    O    0.76380   0.64027   0.20014   1.000
    O346    O    0.13864   0.71177   0.26330   1.000
    O347    O    0.63859   0.71173   0.26328   1.000
    O348    O    0.13625   0.85492   0.25390   1.000
    O349    O    0.63622   0.85487   0.25392   1.000
    O350    O    0.27770   0.49619   0.20649   1.000
    O351    O    0.77777   0.49621   0.20650   1.000
    O352    O    0.10859   0.31735   0.27998   1.000
    O353    O    0.60858   0.31736   0.27995   1.000
    O354    O    0.02300   0.36190   0.24324   1.000
    O355    O    0.52300   0.36201   0.24327   1.000
    O356    O    0.14582   0.38168   0.95972   1.000
    O357    O    0.64583   0.38166   0.95973   1.000
    O358    O    0.12069   0.51734   0.92110   1.000
    O359    O    0.62070   0.51728   0.92109   1.000
    O360    O    0.41656   0.63685   0.20678   1.000
    O361    O    0.91646   0.63680   0.20686   1.000
    O362    O    0.41491   0.55723   0.31596   1.000
    O363    O    0.91589   0.55640   0.31555   1.000
    O364    O    0.46950   0.71814   0.57351   1.000
    O365    O    0.96949   0.71813   0.57348   1.000
    O366    O    0.06037   0.74807   0.56672   1.000
    O367    O    0.56037   0.74808   0.56672   1.000
    O368    O    0.48631   0.85971   0.70026   1.000
    O369    O    0.98632   0.85971   0.70025   1.000
    O370    O    0.11118   0.78800   0.76342   1.000
    O371    O    0.61117   0.78788   0.76341   1.000
    O372    O    0.11380   0.64494   0.75384   1.000
    O373    O    0.61380   0.64483   0.75384   1.000
    O374    O    0.47217   0.00000   0.70661   1.000
    O375    O    0.97217   0.00000   0.70661   1.000
    O376    O    0.14116   0.18288   0.78066   1.000
    O377    O    0.64117   0.18294   0.78059   1.000
    O378    O    0.22667   0.14095   0.74112   1.000
    O379    O    0.72667   0.14095   0.74110   1.000
    O380    O    0.10414   0.11819   0.45951   1.000
    O381    O    0.78048   0.78216   0.07340   1.000
    O382    O    0.18963   0.75205   0.06680   1.000
    O383    O    0.68962   0.75205   0.06600   1.000
loop_
    _geom_bond_atom_site_label_1
    _geom_bond_atom_site_label_2
    _geom_bond_distance
    _geom_bond_site_symmetry_2
    _ccdc_geom_bond_type
    C180   O309      1.27797      .   S
    C180   O311      1.27152      .   S
    C180   C178      1.53063  1_554   S
    C179   O308      1.27800      .   S
    C179   O310      1.27150      .   S
    C179   C177      1.53190  1_554   S
    C295   O383      1.26781      .   S
    C295   O381      1.28266      .   S
    C295   C293      1.52659  1_554   S
    C294   O382      1.27372      .   S
    C294   O191      1.28299      .   S
    C294   C292      1.52507  1_554   S
    H75    C234      1.09921      .   S
    H74    C233      1.09950      .   S
    C226   H71       1.10738      .   S
    C226   C208      1.53950      .   S
    C226   C222      1.53362      .   S
    C226   C228      1.52508  1_554   S
    C225   H70       1.10751      .   S
    C225   C207      1.53948      .   S
    C225   C221      1.53366      .   S
    C225   C227      1.52509  1_554   S
    C249   H105      1.10111      .   S
    C249   C234      1.54092      .   S
    C249   C247      1.53333      .   S
    C249   C251      1.53080  1_554   S
    C248   H104      1.10112      .   S
    C248   C233      1.54103      .   S
    C248   C246      1.53333      .   S
    C248   C250      1.53066  1_554   S
    H53    C208      1.09699      .   S
    H52    C207      1.09699      .   S
    H66    C221      1.09821      .   S
    H67    C222      1.09815      .   S
    H81    C234      1.10137      .   S
    H80    C233      1.10144      .   S
    H51    C208      1.10136      .   S
    H50    C207      1.10138      .   S
    C234   C232      1.54494      .   S
    C233   C231      1.54440      .   S
    H69    C222      1.10111      .   S
    H68    C221      1.10111      .   S
    H103   C247      1.09935      .   S
    H102   C246      1.09933      .   S
    C208   C206      1.53058      .   S
    C207   C205      1.53060      .   S
    C222   C202      1.53244      .   S
    C221   C201      1.54392      .   S
    H101   C247      1.10124      .   S
    H100   C246      1.10126      .   S
    C247   C111      1.54289      .   S
    C246   C110      1.54280      .   S
    C232   H73       1.09813      .   S
    C232   C230      1.52139      .   S
    C232   C109      1.53364      .   S
    C231   H72       1.09811      .   S
    C231   C229      1.52129      .   S
    C231   C108      1.53368      .   S
    C206   H49       1.10452      .   S
    C206   C224      1.51800      .   S
    C206   C204      1.54204      .   S
    C205   H48       1.10469      .   S
    C205   C223      1.51808      .   S
    C205   C203      1.54204      .   S
    C202   H43       1.10284      .   S
    C202   C204      1.54287      .   S
    C202   C200      1.52335      .   S
    C201   H42       1.10100      .   S
    C201   C203      1.53794      .   S
    C201   C199      1.51747      .   S
    O339   C224      1.26563      .   S
    O338   C223      1.26558      .   S
    C230   O345      1.29105      .   S
    C230   O351      1.26573      .   S
    C229   O344      1.29101      .   S
    C229   O350      1.26570      .   S
    C111   H99       1.10285      .   S
    C111   C109      1.53029      .   S
    C111   C245      1.53021      .   S
    C110   H98       1.10283      .   S
    C110   C108      1.53030      .   S
    C110   C112      1.52970      .   S
    O360   C254      1.29739      .   S
    O361   C255      1.29733      .   S
    H57    C210      1.09958      .   S
    H56    C209      1.09964      .   S
    H86    C239      1.09858      .   S
    H87    C240      1.09772      .   S
    H45    C204      1.10138      .   S
    H44    C203      1.10137      .   S
    O329   C214      1.27543      .   S
    O328   C213      1.27548      .   S
    C224   O337      1.28669      .   S
    C223   O336      1.29634      .   S
    C204   H47       1.09859      .   S
    C203   H46       1.09866      .   S
    H94    C108      1.09856      .   S
    H95    C109      1.09851      .   S
    C199   O322      1.26579      .   S
    C199   O324      1.29727      .   S
    C200   O323      1.26554      .   S
    C200   O325      1.29689      .   S
    C109   H97       1.09902      .   S
    C108   H96       1.09978      .   S
    O354   C112      1.27333      .   S
    O355   C245      1.27339      .   S
    C112   O352      1.27619      .   S
    C245   O353      1.27573      .   S
    O348   C235      1.29696      .   S
    O349   C236      1.29697      .   S
    C214   O331      1.27355      .   S
    C214   C212      1.53031      .   S
    C213   O330      1.27349      .   S
    C213   C211      1.53036      .   S
    O347   C236      1.26555      .   S
    O346   C235      1.26555      .   S
    C210   H55       1.09854      .   S
    C210   C212      1.53078      .   S
    C210   C196      1.53425  1_565   S
    C209   H54       1.09854      .   S
    C209   C211      1.53078      .   S
    C209   C195      1.53432  1_565   S
    C236   C238      1.51810      .   S
    C235   C237      1.51798      .   S
    C240   H85       1.10145      .   S
    C240   C238      1.53828      .   S
    C240   C241      1.54262      .   S
    C239   H84       1.10136      .   S
    C239   C237      1.53771      .   S
    C239   C242      1.54198  1_455   S
    C255   O363      1.26541      .   S
    C255   C242      1.51786      .   S
    C254   O362      1.26545      .   S
    C254   C241      1.51810      .   S
    O327   C194      1.26574  1_565   S
    O326   C193      1.26576  1_465   S
    H59    C212      1.10299      .   S
    H58    C211      1.10298      .   S
    O320   C193      1.29127  1_455   S
    O321   C194      1.29123      .   S
    C212   C216      1.54229      .   S
    C211   C215      1.54221      .   S
    C194   C195      1.52179      .   S
    C193   C196      1.52165      .   S
    H83    C238      1.10126      .   S
    H82    C237      1.10127      .   S
    H89    C242      1.10470      .   S
    H88    C241      1.10478      .   S
    C238   C253      1.54393      .   S
    C237   C252      1.54389      .   S
    H37    C196      1.09808      .   S
    H36    C195      1.09809      .   S
    C242   C244      1.53026      .   S
    C241   C243      1.53020      .   S
    C196   C198      1.54434      .   S
    C195   C197      1.54436      .   S
    C216   H61       1.10128      .   S
    C216   H63       1.09922      .   S
    C216   C218      1.53260      .   S
    C215   H60       1.10128      .   S
    C215   H62       1.09924      .   S
    C215   C217      1.52786      .   S
    C253   H114      1.10111      .   S
    C253   H107      1.09818      .   S
    C253   C257      1.53347      .   S
    C252   H113      1.10112      .   S
    C252   H106      1.09821      .   S
    C252   C256      1.53346      .   S
    C244   H91       1.10134      .   S
    C244   H93       1.09698      .   S
    C244   C256      1.53912  1_655   S
    C243   H90       1.10140      .   S
    C243   H92       1.09694      .   S
    C243   C257      1.53918      .   S
    C198   H41       1.10148  1_545   S
    C198   C218      1.54099  1_545   S
    C198   H39       1.09950      .   S
    C197   H40       1.10148  1_545   S
    C197   C217      1.53840  1_545   S
    C197   H38       1.09951      .   S
    O186   C287      1.27184  1_565   S
    O185   C286      1.27174  1_565   S
    O317   C79       1.28305      .   S
    O316   C192      1.28279  1_455   S
    O319   C192      1.27371      .   S
    O318   C79       1.27369      .   S
    H65    C218      1.10110  1_545   S
    H64    C217      1.10082  1_545   S
    H116   C256      1.10743  1_655   S
    H115   C257      1.10747      .   S
    C217   C219      1.53792      .   S
    C218   C220      1.52990      .   S
    C256   C258      1.52480      .   S
    C257   C259      1.52477      .   S
    O184   C287      1.27896      .   S
    O380   C286      1.27751      .   S
    C79    C77       1.52460      .   S
    C192   C78       1.52479      .   S
    C287   C285      1.52987      .   S
    C286   C284      1.52988      .   S
    C220   O333      1.27727      .   S
    C220   O335      1.27184  1_565   S
    C219   O332      1.27753      .   S
    C219   O334      1.27180  1_565   S
    C258   O366      1.27372      .   S
    C258   O365      1.28283  1_455   S
    C259   O367      1.27363      .   S
    C259   O364      1.28292      .   S
    H120   C265      1.09949      .   S
    H119   C264      1.09949      .   S
    C77    H35       1.10737      .   S
    C77    C168      1.53917      .   S
    C77    C181      1.53284      .   S
    C78    H34       1.10736  1_655   S
    C78    C167      1.53912  1_655   S
    C78    C182      1.53346      .   S
    C285   H146      1.10110  1_545   S
    C285   C265      1.54097  1_545   S
    C285   C283      1.53263      .   S
    C284   H145      1.10108  1_545   S
    C284   C264      1.54097  1_545   S
    C284   C282      1.53262      .   S
    H17    C168      1.09690      .   S
    H16    C167      1.09697      .   S
    H31    C182      1.09823      .   S
    H30    C181      1.09763      .   S
    H121   C264      1.10149  1_545   S
    H122   C265      1.10145  1_545   S
    H15    C168      1.10139      .   S
    H14    C167      1.10136      .   S
    H33    C182      1.10113      .   S
    H32    C181      1.10092      .   S
    C265   C263      1.54437      .   S
    C264   C262      1.54434      .   S
    H144   C283      1.09946      .   S
    H143   C282      1.09925      .   S
    C168   C166      1.53023      .   S
    C167   C165      1.53030      .   S
    C181   C161      1.54530      .   S
    C182   C162      1.54391      .   S
    H142   C283      1.10128      .   S
    H141   C282      1.10127      .   S
    C283   C279      1.54221      .   S
    C282   C278      1.54229      .   S
    C263   H118      1.09804      .   S
    C263   C260      1.52177      .   S
    C263   C277      1.53432  1_565   S
    C262   H117      1.09811      .   S
    C262   C261      1.59724      .   S
    C262   C276      1.53428  1_565   S
    C166   H13       1.10461      .   S
    C166   C76       1.51813      .   S
    C166   C163      1.54221      .   S
    C165   H12       1.10456      .   S
    C165   C183      1.51794      .   S
    C165   C164      1.54200  1_455   S
    C162   H7        1.10124      .   S
    C162   C164      1.53774      .   S
    C162   C160      1.51802      .   S
    C161   H6        1.10128      .   S
    C161   C163      1.53795      .   S
    C161   C159      1.51773      .   S
    O315   C76       1.26548      .   S
    O314   C183      1.26550      .   S
    C261   O369      1.27046  1_455   S
    C261   O375      1.17162  1_465   S
    C260   O368      1.29124      .   S
    C260   O374      1.22103  1_565   S
    C279   H140      1.13822      .   S
    C279   C277      1.53081      .   S
    C279   C281      1.53016      .   S
    C278   H139      1.13757      .   S
    C278   C276      1.53077      .   S
    C278   C280      1.53034      .   S
    O188   C291      1.29637      .   S
    O187   C290      1.29638      .   S
    H21    C170      1.09962      .   S
    H20    C169      1.09966      .   S
    H128   C271      1.09865      .   S
    H127   C270      1.09857      .   S
    H8     C163      1.10139      .   S
    H9     C164      1.10136      .   S
    C76    O313      1.29726      .   S
    C183   O312      1.29723      .   S
    O305   C174      1.27569      .   S
    O304   C173      1.27573      .   S
    C163   H10       1.09855      .   S
    C164   H11       1.09857      .   S
    H135   C276      1.09854      .   S
    H136   C277      1.09854      .   S
    C159   O298      1.26564      .   S
    C159   O300      1.29723      .   S
    C160   O299      1.26552      .   S
    C160   O301      1.29688      .   S
    C277   H138      1.16563      .   S
    C276   H137      1.16569      .   S
    O379   C281      1.27345      .   S
    O378   C280      1.27350      .   S
    C281   O377      1.27573      .   S
    C280   O376      1.27547      .   S
    O373   C267      1.29685      .   S
    O372   C266      1.29687      .   S
    C174   O307      1.27335      .   S
    C174   C172      1.53015      .   S
    C173   O306      1.27341      .   S
    C173   C171      1.53018      .   S
    O371   C267      1.26558      .   S
    O370   C266      1.26555      .   S
    C170   H19       1.09852      .   S
    C170   C172      1.53028      .   S
    C170   C156      1.53377      .   S
    C169   H18       1.09850      .   S
    C169   C171      1.53027      .   S
    C169   C155      1.53366      .   S
    C267   C269      1.51806      .   S
    C266   C268      1.51800      .   S
    C271   H126      1.10137      .   S
    C271   C269      1.53793      .   S
    C271   C273      1.54206      .   S
    C270   H125      1.10137      .   S
    C270   C268      1.53790      .   S
    C270   C272      1.54202      .   S
    C291   O190      1.26566      .   S
    C291   C273      1.51812      .   S
    C290   O189      1.26560      .   S
    C290   C272      1.51803      .   S
    O302   C153      1.26570      .   S
    O303   C154      1.26569      .   S
    H22    C171      1.10284      .   S
    H23    C172      1.10283      .   S
    O297   C154      1.29101      .   S
    O296   C153      1.29104      .   S
    C172   C176      1.54282      .   S
    C171   C175      1.54292      .   S
    C154   C156      1.52129      .   S
    C153   C155      1.52138      .   S
    H123   C268      1.10123      .   S
    H124   C269      1.10121      .   S
    H130   C273      1.10470      .   S
    H129   C272      1.10467      .   S
    C269   C289      1.54393      .   S
    C268   C288      1.54398      .   S
    C273   C275      1.53062      .   S
    C272   C274      1.53058      .   S
    H1     C156      1.09810      .   S
    H0     C155      1.09809      .   S
    C156   C158      1.54426      .   S
    C155   C157      1.54349      .   S
    C176   H25       1.10125      .   S
    C176   H27       1.09938      .   S
    C176   C178      1.53332      .   S
    C175   H24       1.10124      .   S
    C175   H26       1.09938      .   S
    C175   C177      1.53264      .   S
    C289   H150      1.10114      .   S
    C289   H148      1.09819      .   S
    C289   C293      1.53300      .   S
    C288   H149      1.10111      .   S
    C288   H147      1.09814      .   S
    C288   C292      1.53364      .   S
    C275   H132      1.10134      .   S
    C275   H134      1.09692      .   S
    C275   C293      1.53883      .   S
    C274   H131      1.10139      .   S
    C274   H133      1.09699      .   S
    C274   C292      1.53949      .   S
    C157   H4        1.10142      .   S
    C157   C177      1.54100      .   S
    C157   H2        1.10007      .   S
    C158   H5        1.10144      .   S
    C158   C178      1.54103      .   S
    C158   H3        1.09949      .   S
    O359   C251      1.27151      .   S
    O358   C250      1.27224      .   S
    O341   C228      1.28299      .   S
    O340   C227      1.28300      .   S
    O342   C227      1.27370      .   S
    O343   C228      1.27367      .   S
    H29    C178      1.10111      .   S
    H28    C177      1.10107      .   S
    H152   C293      1.10736      .   S
    H151   C292      1.10750      .   S
    O356   C250      1.27797      .   S
    O357   C251      1.27802      .   S
