# CIF file generated by openbabel 2.4.90, see http://openbabel.sf.net
data_I
_chemical_name_common ''
_cell_length_a 24.165
_cell_length_b 15.381
_cell_length_c 17.043
_cell_angle_alpha 89.908
_cell_angle_beta 90.006
_cell_angle_gamma 91.729
_space_group_name_H-M_alt 'P 1'
_space_group_name_Hall 'P 1'
loop_
    _symmetry_equiv_pos_as_xyz
    x,y,z
loop_
    _atom_site_label
    _atom_site_type_symbol
    _atom_site_fract_x
    _atom_site_fract_y
    _atom_site_fract_z
    _atom_site_occupancy
    N0      N    0.85223   0.52960   0.86039   1.000
    N1      N    0.48346   0.27751   0.63740   1.000
    N2      N    0.26680   0.22225   0.13761   1.000
    N3      N    0.76679   0.22222   0.13754   1.000
    N4      N    0.35221   0.52959   0.86041   1.000
    N5      N    0.01664   0.72240   0.36254   1.000
    N6      N    0.51654   0.72248   0.36258   1.000
    N7      N    0.89786   0.96992   0.36028   1.000
    N8      N    0.73319   0.77775   0.86235   1.000
    N9      N    0.23321   0.77778   0.86240   1.000
    N10     N    0.64780   0.47042   0.13957   1.000
    N11     N    0.14777   0.47041   0.13959   1.000
    N12     N    0.98337   0.27760   0.63744   1.000
    N13     N    0.39786   0.96993   0.36028   1.000
    N14     N    0.10200   0.02933   0.63970   1.000
    N15     N    0.60214   0.02933   0.63967   1.000
    Zr16    Zr   0.21346   0.77314   0.19497   1.000
    O17     O    0.20333   0.68085   0.18177   1.000
    O18     O    0.15490   0.75279   0.24540   1.000
    O19     O    0.15461   0.77068   0.24423   1.000
    O20     O    0.26704   0.83308   0.24429   1.000
    O21     O    0.21542   0.77167   0.09581   1.000
    Zr22    Zr   0.37064   0.49246   0.20946   1.000
    O23     O    0.30330   0.48741   0.19162   1.000
    O24     O    0.41285   0.56801   0.24740   1.000
    O25     O    0.41265   0.55806   0.26105   1.000
    O26     O    0.34662   0.40774   0.19608   1.000
    O27     O    0.36711   0.50052   0.10588   1.000
    Zr28    Zr   0.62937   0.50752   0.79050   1.000
    O29     O    0.65338   0.59224   0.80388   1.000
    O30     O    0.63289   0.49947   0.89409   1.000
    O31     O    0.58715   0.43197   0.75257   1.000
    O32     O    0.69670   0.51258   0.80835   1.000
    O33     O    0.58737   0.44191   0.73891   1.000
    Zr34    Zr   0.15646   0.29776   0.85582   1.000
    O35     O    0.15296   0.35141   0.93975   1.000
    O36     O    0.14093   0.21629   0.79240   1.000
    O37     O    0.19193   0.26890   0.93511   1.000
    O38     O    0.10407   0.30090   0.79339   1.000
    O39     O    0.21537   0.36347   0.84997   1.000
    Zr40    Zr   0.03656   0.72655   0.69481   1.000
    O41     O    0.09538   0.72916   0.74409   1.000
    O42     O    0.04664   0.81889   0.68171   1.000
    O43     O    0.03456   0.72820   0.59573   1.000
    O44     O    0.09505   0.74704   0.74528   1.000
    O45     O    0.98303   0.66626   0.74395   1.000
    Zr46    Zr   0.34355   0.70223   0.14418   1.000
    O47     O    0.28463   0.63653   0.15003   1.000
    O48     O    0.39592   0.69912   0.20660   1.000
    O49     O    0.30808   0.73111   0.06489   1.000
    O50     O    0.35904   0.78351   0.20761   1.000
    O51     O    0.34704   0.64858   0.06025   1.000
    Zr52    Zr   0.87076   0.49233   0.20936   1.000
    O53     O    0.91294   0.56791   0.24734   1.000
    O54     O    0.91287   0.55786   0.26093   1.000
    O55     O    0.84670   0.40764   0.19601   1.000
    O56     O    0.80340   0.48734   0.19156   1.000
    O57     O    0.86720   0.50044   0.10580   1.000
    Zr58    Zr   0.71344   0.77314   0.19498   1.000
    O59     O    0.76703   0.83307   0.24430   1.000
    O60     O    0.65456   0.77069   0.24425   1.000
    O61     O    0.65486   0.75280   0.24542   1.000
    O62     O    0.70332   0.68085   0.18177   1.000
    O63     O    0.71540   0.77165   0.09570   1.000
    Zr64    Zr   0.90658   0.79763   0.64448   1.000
    O65     O    0.90306   0.85123   0.56042   1.000
    O66     O    0.94196   0.76888   0.56512   1.000
    O67     O    0.96540   0.86332   0.65026   1.000
    O68     O    0.89110   0.71625   0.70790   1.000
    O69     O    0.85411   0.80082   0.70669   1.000
    Zr70    Zr   0.84354   0.70226   0.14418   1.000
    O71     O    0.85903   0.78354   0.20760   1.000
    O72     O    0.89593   0.69911   0.20661   1.000
    O73     O    0.78463   0.63655   0.15002   1.000
    O74     O    0.80807   0.73112   0.06487   1.000
    O75     O    0.84704   0.64860   0.06025   1.000
    Zr76    Zr   0.78655   0.22686   0.80503   1.000
    O77     O    0.84540   0.22932   0.75576   1.000
    O78     O    0.73296   0.16673   0.75570   1.000
    O79     O    0.78458   0.22833   0.90418   1.000
    O80     O    0.84510   0.24721   0.75459   1.000
    O81     O    0.79668   0.31915   0.81822   1.000
    Zr82    Zr   0.09342   0.20238   0.35552   1.000
    O83     O    0.05804   0.23112   0.43487   1.000
    O84     O    0.10890   0.28376   0.29210   1.000
    O85     O    0.03456   0.13650   0.34973   1.000
    O86     O    0.09690   0.14859   0.43956   1.000
    O87     O    0.14589   0.19918   0.29330   1.000
    Zr88    Zr   0.87915   0.00000   0.70860   1.000
    O89     O    0.94649   0.00733   0.69113   1.000
    O90     O    0.88278   0.99469   0.60522   1.000
    O91     O    0.90328   0.08754   0.69550   1.000
    O92     O    0.83696   0.92730   0.74676   1.000
    O93     O    0.83694   0.93748   0.76023   1.000
    Zr94    Zr   0.59342   0.20238   0.35550   1.000
    O95     O    0.64589   0.19918   0.29320   1.000
    O96     O    0.53457   0.13651   0.34973   1.000
    O97     O    0.59694   0.14859   0.43948   1.000
    O98     O    0.60891   0.28376   0.29207   1.000
    O99     O    0.55807   0.23110   0.43485   1.000
    Zr100   Zr   0.46346   0.27347   0.30518   1.000
    O101    O    0.45334   0.18094   0.31828   1.000
    O102    O    0.40496   0.25299   0.25471   1.000
    O103    O    0.40464   0.27088   0.25591   1.000
    O104    O    0.51698   0.33377   0.25604   1.000
    O105    O    0.46548   0.27179   0.40425   1.000
    Zr106   Zr   0.37916   0.00000   0.70860   1.000
    O107    O    0.33697   0.92731   0.74677   1.000
    O108    O    0.33695   0.93749   0.76024   1.000
    O109    O    0.38278   0.99469   0.60522   1.000
    O110    O    0.44653   0.00733   0.69112   1.000
    O111    O    0.40331   0.08752   0.69549   1.000
    Zr112   Zr   0.40658   0.79763   0.64449   1.000
    O113    O    0.44193   0.76891   0.56514   1.000
    O114    O    0.35411   0.80083   0.70671   1.000
    O115    O    0.40306   0.85123   0.56044   1.000
    O116    O    0.39109   0.71625   0.70791   1.000
    O117    O    0.46543   0.86331   0.65026   1.000
    Zr118   Zr   0.96344   0.27345   0.30519   1.000
    O119    O    0.01697   0.33375   0.25605   1.000
    O120    O    0.95332   0.18092   0.31828   1.000
    O121    O    0.90462   0.27084   0.25590   1.000
    O122    O    0.90495   0.25296   0.25470   1.000
    O123    O    0.96545   0.27180   0.40426   1.000
    Zr124   Zr   0.28657   0.22687   0.80502   1.000
    O125    O    0.23294   0.16674   0.75570   1.000
    O126    O    0.28460   0.22835   0.90419   1.000
    O127    O    0.29668   0.31916   0.81822   1.000
    O128    O    0.34544   0.22931   0.75575   1.000
    O129    O    0.34515   0.24720   0.75458   1.000
    Zr130   Zr   0.65646   0.29779   0.85583   1.000
    O131    O    0.64097   0.21632   0.79239   1.000
    O132    O    0.69192   0.26890   0.93510   1.000
    O133    O    0.60408   0.30088   0.79340   1.000
    O134    O    0.65296   0.35143   0.93975   1.000
    O135    O    0.71537   0.36348   0.84997   1.000
    Zr136   Zr   0.62084   0.99192   0.29138   1.000
    O137    O    0.55347   0.98697   0.30886   1.000
    O138    O    0.59669   0.90743   0.30450   1.000
    O139    O    0.66305   0.05746   0.23973   1.000
    O140    O    0.66303   0.06764   0.25312   1.000
    O141    O    0.61722   0.00008   0.39475   1.000
    Zr142   Zr   0.53655   0.72653   0.69481   1.000
    O143    O    0.53452   0.72821   0.59574   1.000
    O144    O    0.54666   0.81888   0.68171   1.000
    O145    O    0.48302   0.66623   0.74395   1.000
    O146    O    0.59536   0.72912   0.74407   1.000
    O147    O    0.59503   0.74700   0.74527   1.000
    Zr148   Zr   0.12084   0.99195   0.29140   1.000
    O149    O    0.05347   0.98698   0.30887   1.000
    O150    O    0.11719   0.00010   0.39478   1.000
    O151    O    0.09672   0.90743   0.30450   1.000
    O152    O    0.16306   0.05749   0.23976   1.000
    O153    O    0.16304   0.06767   0.25323   1.000
    Zr154   Zr   0.12926   0.50765   0.79062   1.000
    O155    O    0.13282   0.49955   0.89417   1.000
    O156    O    0.15331   0.59234   0.80397   1.000
    O157    O    0.19662   0.51265   0.80843   1.000
    O158    O    0.08717   0.44211   0.73904   1.000
    O159    O    0.08707   0.43208   0.75264   1.000
loop_
    _geom_bond_atom_site_label_1
    _geom_bond_atom_site_label_2
    _geom_bond_distance
    _geom_bond_site_symmetry_2
    _ccdc_geom_bond_type
    Zr16   O17       1.45113      .   S
    N11    O17       3.54132      .   S
    Zr16   O18       1.67687      .   S
    N5     O18       3.90781      .   S
    Zr16   O19       1.65103      .   S
    N5     O19       3.94707      .   S
    Zr16   O20       1.77852      .   S
    N13    O20       4.23578      .   S
    Zr16   O21       1.69094      .   S
    N9     O21       4.00183  1_556   S
    Zr22   O23       1.65476      .   S
    N11    O23       3.86280      .   S
    Zr22   O24       1.65534      .   S
    N6     O24       3.92817      .   S
    Zr22   O25       1.66214      .   S
    N6     O25       3.91442      .   S
    Zr22   O26       1.42890      .   S
    N2     O26       3.53982      .   S
    Zr22   O27       1.77177      .   S
    N4     O27       4.22314  1_556   S
    Zr28   O29       1.42895      .   S
    N8     O29       3.53982      .   S
    Zr28   O30       1.77189      .   S
    N10    O30       4.22333  1_554   S
    Zr28   O31       1.65530      .   S
    N1     O31       3.92805      .   S
    Zr28   O32       1.65474      .   S
    N0     O32       3.86273      .   S
    Zr28   O33       1.66205      .   S
    N1     O33       3.91434      .   S
    Zr34   O35       1.65600      .   S
    N11    O35       3.87298  1_554   S
    Zr34   O36       1.68976      .   S
    N14    O36       3.97331      .   S
    Zr34   O37       1.66689      .   S
    N2     O37       3.97085  1_554   S
    Zr34   O38       1.65542      .   S
    N12    O38       3.95453  1_655   S
    Zr34   O39       1.72343      .   S
    N4     O39       4.12147      .   S
    Zr40   O41       1.65024      .   S
    N9     O41       3.94602      .   S
    Zr40   O42       1.45066      .   S
    N14    O42       3.53697  1_545   S
    Zr40   O43       1.68945      .   S
    N5     O43       3.99856      .   S
    Zr40   O44       1.67647      .   S
    N9     O44       3.90634      .   S
    Zr40   O45       1.77762  1_455   S
    N0     O45       4.23496      .   S
    Zr46   O47       1.72359      .   S
    N11    O47       4.12180      .   S
    Zr46   O48       1.65507      .   S
    N6     O48       3.95340      .   S
    Zr46   O49       1.66693      .   S
    N9     O49       3.97096  1_556   S
    Zr46   O50       1.68751      .   S
    N13    O50       3.96650      .   S
    Zr46   O51       1.65593      .   S
    N4     O51       3.87287  1_556   S
    Zr52   O53       1.65533      .   S
    N5     O53       3.92875  1_455   S
    Zr52   O54       1.66269      .   S
    N5     O54       3.91435  1_455   S
    Zr52   O55       1.42895      .   S
    N3     O55       3.54001      .   S
    Zr52   O56       1.65542      .   S
    N10    O56       3.86420      .   S
    Zr52   O57       1.77144      .   S
    N0     O57       4.22242  1_556   S
    Zr58   O59       1.77867      .   S
    N7     O59       4.23602      .   S
    Zr58   O60       1.65152      .   S
    N6     O60       3.94815      .   S
    Zr58   O61       1.67729      .   S
    N6     O61       3.90900      .   S
    Zr58   O62       1.45101      .   S
    N10    O62       3.54099      .   S
    Zr58   O63       1.69292      .   S
    N8     O63       4.00090  1_556   S
    Zr64   O65       1.65521      .   S
    N7     O65       3.87008      .   S
    Zr64   O66       1.66752      .   S
    N5     O66       3.97179  1_455   S
    Zr64   O67       1.72173      .   S
    N14    O67       4.11556  1_445   S
    Zr64   O68       1.68598      .   S
    N0     O68       3.96137      .   S
    Zr64   O69       1.65494      .   S
    N8     O69       3.95439      .   S
    Zr70   O71       1.68738      .   S
    N7     O71       3.96627      .   S
    Zr70   O72       1.65543      .   S
    N5     O72       3.95463  1_455   S
    Zr70   O73       1.72343      .   S
    N10    O73       4.12149      .   S
    Zr70   O74       1.66712      .   S
    N8     O74       3.97130  1_556   S
    Zr70   O75       1.65609      .   S
    N0     O75       3.87318  1_556   S
    Zr76   O77       1.65115      .   S
    N12    O77       3.94728      .   S
    Zr76   O78       1.78011      .   S
    N15    O78       4.24026      .   S
    Zr76   O79       1.69071      .   S
    N3     O79       4.00107  1_554   S
    Zr76   O80       1.67695      .   S
    N12    O80       3.90806      .   S
    Zr76   O81       1.45114      .   S
    N0     O81       3.54134      .   S
    Zr82   O83       1.66739      .   S
    N12    O83       3.97147  1_655   S
    Zr82   O84       1.68601      .   S
    N11    O84       3.96147      .   S
    Zr82   O85       1.72409      .   S
    N7     O85       4.12279  1_665   S
    Zr82   O86       1.65638      .   S
    N14    O86       3.87406      .   S
    Zr82   O87       1.65504      .   S
    N2     O87       3.95468      .   S
    Zr88   O89       1.65474      .   S
    N14    O89       3.86352  1_455   S
    Zr88   O90       1.76626  1_545   S
    N7     O90       4.20932      .   S
    Zr88   O91       1.46777      .   S
    N12    O91       3.59448      .   S
    Zr88   O92       1.62538  1_545   S
    N8     O92       3.88565      .   S
    Zr88   O93       1.63639  1_545   S
    N8     O93       3.86859      .   S
    Zr94   O95       1.65584      .   S
    N3     O95       3.95399      .   S
    Zr94   O96       1.72413      .   S
    N13    O96       4.12290  1_565   S
    Zr94   O97       1.65550      .   S
    N15    O97       3.87496      .   S
    Zr94   O98       1.68606      .   S
    N10    O98       3.96155      .   S
    Zr94   O99       1.66695      .   S
    N1     O99       3.97036      .   S
    Zr100  O101      1.45371      .   S
    N13    O101      3.54592  1_565   S
    Zr100  O102      1.67648      .   S
    N2     O102      3.90642      .   S
    Zr100  O103      1.65030      .   S
    N2     O103      3.94608      .   S
    Zr100  O104      1.77770      .   S
    N10    O104      4.23514      .   S
    Zr100  O105      1.68928      .   S
    N1     O105      3.99814      .   S
    Zr106  O107      1.62536  1_545   S
    N9     O107      3.88570      .   S
    Zr106  O108      1.63639  1_545   S
    N9     O108      3.86862      .   S
    Zr106  O109      1.76620  1_545   S
    N13    O109      4.20930      .   S
    Zr106  O110      1.65554      .   S
    N15    O110      3.86594      .   S
    Zr106  O111      1.46776      .   S
    N1     O111      3.59446      .   S
    Zr112  O113      1.66703      .   S
    N6     O113      3.97058      .   S
    Zr112  O114      1.65493      .   S
    N9     O114      3.95450      .   S
    Zr112  O115      1.65509      .   S
    N13    O115      3.87034      .   S
    Zr112  O116      1.68603      .   S
    N4     O116      3.96149      .   S
    Zr112  O117      1.72244      .   S
    N15    O117      4.11764  1_545   S
    Zr118  O119      1.77766  1_655   S
    N11    O119      4.23506      .   S
    Zr118  O120      1.45358      .   S
    N7     O120      3.54568  1_565   S
    Zr118  O121      1.65040      .   S
    N3     O121      3.94650      .   S
    Zr118  O122      1.67666      .   S
    N3     O122      3.90680      .   S
    Zr118  O123      1.68936      .   S
    N12    O123      3.99839      .   S
    Zr124  O125      1.78075      .   S
    N14    O125      4.24214      .   S
    Zr124  O126      1.69104      .   S
    N2     O126      4.00199  1_554   S
    Zr124  O127      1.45103      .   S
    N4     O127      3.54103      .   S
    Zr124  O128      1.65159      .   S
    N1     O128      3.94831      .   S
    Zr124  O129      1.67736      .   S
    N1     O129      3.90915      .   S
    Zr130  O131      1.68982      .   S
    N15    O131      3.97328      .   S
    Zr130  O132      1.66667      .   S
    N3     O132      3.97017  1_554   S
    Zr130  O133      1.65518      .   S
    N1     O133      3.95361      .   S
    Zr130  O134      1.65580      .   S
    N10    O134      3.87256  1_554   S
    Zr130  O135      1.72358      .   S
    N0     O135      4.12175      .   S
    Zr136  O137      1.65455      .   S
    N13    O137      3.86221      .   S
    Zr136  O138      1.42575      .   S
    N6     O138      3.53296      .   S
    Zr136  O139      1.66335  1_565   S
    N3     O139      3.91703      .   S
    Zr136  O140      1.65739  1_565   S
    N3     O140      3.93022      .   S
    Zr136  O141      1.76882  1_565   S
    N15    O141      4.21601      .   S
    Zr142  O143      1.68933      .   S
    N6     O143      3.99830      .   S
    Zr142  O144      1.45092      .   S
    N15    O144      3.53820  1_545   S
    Zr142  O145      1.77766      .   S
    N4     O145      4.23502      .   S
    Zr142  O146      1.65020      .   S
    N8     O146      3.94574      .   S
    Zr142  O147      1.67636      .   S
    N8     O147      3.90610      .   S
    Zr148  O149      1.65456      .   S
    N7     O149      3.86226  1_655   S
    Zr148  O150      1.76894  1_565   S
    N14    O150      4.21637      .   S
    Zr148  O151      1.42581      .   S
    N5     O151      3.53300      .   S
    Zr148  O152      1.66329  1_565   S
    N2     O152      3.91687      .   S
    Zr148  O153      1.65684  1_565   S
    N2     O153      3.93067      .   S
    Zr154  O155      1.77132      .   S
    N11    O155      4.22256  1_554   S
    Zr154  O156      1.42891      .   S
    N9     O156      3.53979      .   S
    Zr154  O157      1.65527      .   S
    N4     O157      3.86387      .   S
    Zr154  O158      1.66258      .   S
    N12    O158      3.91442  1_655   S
    Zr154  O159      1.65535      .   S
    N12    O159      3.92868  1_655   S
