# CIF file generated by openbabel 2.4.90, see http://openbabel.sf.net
data_I
_chemical_name_common ''
_cell_length_a 21.85
_cell_length_b 21.892
_cell_length_c 13.972
_cell_angle_alpha 95.2
_cell_angle_beta 99.23
_cell_angle_gamma 99.89
_space_group_name_H-M_alt 'P 1'
_space_group_name_Hall 'P 1'
loop_
    _symmetry_equiv_pos_as_xyz
    x,y,z
loop_
    _atom_site_label
    _atom_site_type_symbol
    _atom_site_fract_x
    _atom_site_fract_y
    _atom_site_fract_z
    _atom_site_occupancy
    Zn0     Zn   0.18630   0.88161   0.89234   1.000
    Zn1     Zn   0.70195   0.37816   0.89247   1.000
    Zn2     Zn   0.69271   0.88174   0.89247   1.000
    Zn3     Zn   0.16824   0.35857   0.68104   1.000
    Zn4     Zn   0.15900   0.86216   0.68104   1.000
    Zn5     Zn   0.67302   0.35849   0.68090   1.000
    Zn6     Zn   0.66379   0.86208   0.68090   1.000
    Zn7     Zn   0.33947   0.14366   0.12252   1.000
    Zn8     Zn   0.33023   0.64725   0.12252   1.000
    Zn9     Zn   0.84588   0.14379   0.12265   1.000
    Zn10    Zn   0.83665   0.64738   0.12265   1.000
    Zn11    Zn   0.36839   0.16333   0.33409   1.000
    Zn12    Zn   0.35916   0.66692   0.33409   1.000
    Zn13    Zn   0.87318   0.16325   0.33395   1.000
    Zn14    Zn   0.86394   0.66684   0.33395   1.000
    H15     H    0.15334   0.04099   0.64056   1.000
    H16     H    0.14420   0.54459   0.64054   1.000
    H17     H    0.65861   0.04099   0.64057   1.000
    H18     H    0.64940   0.54458   0.64057   1.000
    H19     H    0.14471   0.15392   0.63560   1.000
    H20     H    0.13558   0.65753   0.63559   1.000
    H21     H    0.65001   0.15395   0.63567   1.000
    H22     H    0.64080   0.65754   0.63566   1.000
    H23     H    0.22275   0.19242   0.94188   1.000
    H24     H    0.21356   0.69601   0.94188   1.000
    H25     H    0.72872   0.19252   0.94170   1.000
    Zn26    Zn   0.19553   0.37802   0.89234   1.000
    H27     H    0.71958   0.69612   0.94167   1.000
    H28     H    0.22984   0.08032   0.94723   1.000
    H29     H    0.22065   0.58392   0.94724   1.000
    H30     H    0.73571   0.08041   0.94705   1.000
    H31     H    0.72656   0.58401   0.94702   1.000
    H32     H    0.46437   0.33300   0.62519   1.000
    H33     H    0.45512   0.83656   0.62500   1.000
    H34     H    0.96984   0.33288   0.62459   1.000
    H35     H    0.96058   0.83640   0.62460   1.000
    H36     H    0.35197   0.34005   0.63336   1.000
    H37     H    0.34273   0.84361   0.63337   1.000
    H38     H    0.85746   0.33986   0.63282   1.000
    H39     H    0.84820   0.84339   0.63283   1.000
    H40     H    0.40468   0.40171   0.94082   1.000
    H41     H    0.39544   0.90534   0.94081   1.000
    H42     H    0.91029   0.40207   0.94011   1.000
    H43     H    0.90106   0.90566   0.94010   1.000
    H44     H    0.51705   0.39317   0.93282   1.000
    H45     H    0.50781   0.89679   0.93280   1.000
    H46     H    0.00000   0.39357   0.93207   1.000
    H47     H    0.00000   0.89716   0.93206   1.000
    H48     H    0.17237   0.45889   0.04743   1.000
    H49     H    0.16305   0.96248   0.04738   1.000
    H50     H    0.67798   0.45901   0.04731   1.000
    H51     H    0.66877   0.96259   0.04729   1.000
    H52     H    0.14256   0.26337   0.19469   1.000
    H53     H    0.13356   0.76699   0.19477   1.000
    H54     H    0.64906   0.26357   0.19494   1.000
    H55     H    0.63990   0.76718   0.19497   1.000
    H56     H    0.14600   0.26585   0.01657   1.000
    H57     H    0.13697   0.76946   0.01664   1.000
    H58     H    0.65268   0.26602   0.01687   1.000
    H59     H    0.64348   0.76961   0.01689   1.000
    H60     H    0.25823   0.38773   0.36875   1.000
    H61     H    0.24905   0.89151   0.36885   1.000
    H62     H    0.76394   0.38829   0.36925   1.000
    H63     H    0.75476   0.89192   0.36930   1.000
    H64     H    0.25918   0.38245   0.54810   1.000
    H65     H    0.24996   0.88621   0.54819   1.000
    H66     H    0.76458   0.38288   0.54852   1.000
    H67     H    0.75537   0.88650   0.54856   1.000
    H68     H    0.06445   0.33356   0.50278   1.000
    H69     H    0.05525   0.83703   0.50271   1.000
    H70     H    0.56988   0.33326   0.50219   1.000
    H71     H    0.56067   0.83687   0.50217   1.000
    H72     H    0.21979   0.49388   0.29380   1.000
    H73     H    0.21059   0.99766   0.29347   1.000
    H74     H    0.72524   0.49442   0.29300   1.000
    H75     H    0.71608   0.99804   0.29325   1.000
    H76     H    0.18241   0.01685   0.19578   1.000
    H77     H    0.17355   0.52046   0.19586   1.000
    H78     H    0.68763   0.01694   0.19555   1.000
    H79     H    0.67835   0.52051   0.19557   1.000
    H80     H    0.13715   0.48499   0.28757   1.000
    H81     H    0.12798   0.98846   0.28784   1.000
    H82     H    0.64261   0.48482   0.28771   1.000
    H83     H    0.63346   0.98843   0.28774   1.000
    H84     H    0.03431   0.29809   0.24142   1.000
    H85     H    0.02521   0.80154   0.24139   1.000
    H86     H    0.54034   0.29806   0.24077   1.000
    H87     H    0.53115   0.80164   0.24079   1.000
    H88     H    0.50478   0.31390   0.34342   1.000
    H89     H    0.49559   0.81756   0.34341   1.000
    H90     H    0.00000   0.31440   0.34420   1.000
    H91     H    0.00000   0.81785   0.34412   1.000
    H92     H    0.02428   0.37501   0.27462   1.000
    H93     H    0.01509   0.87844   0.27446   1.000
    H94     H    0.52990   0.37480   0.27425   1.000
    H95     H    0.52074   0.87841   0.27417   1.000
    H96     H    0.38277   0.48082   0.37442   1.000
    H97     H    0.37357   0.98441   0.37442   1.000
    H98     H    0.88799   0.48082   0.37444   1.000
    H99     H    0.87886   0.98443   0.37443   1.000
    C100    C    0.70360   0.66277   0.87599   1.000
    C101    C    0.21131   0.09654   0.87901   1.000
    C102    C    0.20213   0.60013   0.87901   1.000
    H103    H    0.39138   0.36787   0.37933   1.000
    H104    H    0.38217   0.87146   0.37932   1.000
    H105    H    0.89661   0.36788   0.37900   1.000
    H106    H    0.88748   0.87149   0.37938   1.000
    H107    H    0.31261   0.32928   0.07331   1.000
    H108    H    0.30346   0.83289   0.07329   1.000
    H109    H    0.81862   0.32940   0.07311   1.000
    H110    H    0.80943   0.83299   0.07312   1.000
    H111    H    0.30563   0.44140   0.06796   1.000
    H112    H    0.29647   0.94500   0.06794   1.000
    H113    H    0.81153   0.44149   0.06775   1.000
    H114    H    0.80234   0.94508   0.06776   1.000
    H115    H    0.07160   0.18901   0.39039   1.000
    H116    H    0.06234   0.69253   0.39000   1.000
    H117    H    0.57706   0.18885   0.38979   1.000
    H118    H    0.56781   0.69240   0.38980   1.000
    H119    H    0.18398   0.18202   0.38216   1.000
    H120    H    0.17472   0.68555   0.38217   1.000
    H121    H    0.68945   0.18180   0.38162   1.000
    H122    H    0.68020   0.68535   0.38160   1.000
    H123    H    0.13113   0.11976   0.07488   1.000
    H124    H    0.12189   0.62335   0.07488   1.000
    H125    H    0.63674   0.12008   0.07418   1.000
    H126    H    0.62750   0.62371   0.07416   1.000
    H127    H    0.01883   0.12826   0.08293   1.000
    H128    H    0.00959   0.63184   0.08292   1.000
    H129    H    0.52437   0.12862   0.08218   1.000
    H130    H    0.51514   0.63225   0.08217   1.000
    C131    C    0.15103   0.30849   0.06607   1.000
    C132    C    0.14194   0.81210   0.06612   1.000
    C133    C    0.65746   0.30867   0.06627   1.000
    C134    C    0.64827   0.81226   0.06629   1.000
    H135    H    0.36342   0.06281   0.96769   1.000
    H136    H    0.35421   0.56641   0.96760   1.000
    H137    H    0.86913   0.06293   0.96760   1.000
    H138    H    0.85981   0.56652   0.96755   1.000
    H139    H    0.39229   0.25824   0.82003   1.000
    H140    H    0.38312   0.76184   0.82006   1.000
    H141    H    0.89863   0.25843   0.82023   1.000
    H142    H    0.88963   0.76205   0.82031   1.000
    H143    H    0.38870   0.25580   0.99811   1.000
    H144    H    0.37951   0.75939   0.99813   1.000
    H145    H    0.89522   0.25595   0.99836   1.000
    H146    H    0.88620   0.75956   0.99843   1.000
    H147    H    0.27743   0.13351   0.64570   1.000
    H148    H    0.26825   0.63713   0.64570   1.000
    H149    H    0.78314   0.13392   0.64614   1.000
    H150    H    0.77396   0.63771   0.64620   1.000
    H151    H    0.27681   0.13892   0.46644   1.000
    H152    H    0.26761   0.64254   0.46648   1.000
    H153    H    0.78223   0.13922   0.46681   1.000
    H154    H    0.77301   0.64299   0.46600   1.000
    H155    H    0.47151   0.18854   0.51282   1.000
    H156    H    0.46230   0.69216   0.51280   1.000
    H157    H    0.97693   0.18837   0.51228   1.000
    H158    H    0.96773   0.69184   0.51220   1.000
    H159    H    0.31611   0.02738   0.72170   1.000
    H160    H    0.30695   0.53100   0.72169   1.000
    H161    H    0.82159   0.02776   0.72151   1.000
    H162    H    0.81240   0.53154   0.72117   1.000
    H163    H    0.35384   0.50490   0.81941   1.000
    H164    H    0.34456   0.00000   0.81943   1.000
    H165    H    0.85862   0.50496   0.81910   1.000
    H166    H    0.84977   0.00000   0.81919   1.000
    H167    H    0.39873   0.03699   0.72724   1.000
    H168    H    0.38957   0.54060   0.72727   1.000
    H169    H    0.90420   0.03696   0.72714   1.000
    H170    H    0.89503   0.54043   0.72742   1.000
    H171    H    0.50103   0.22378   0.77420   1.000
    H172    H    0.49184   0.72736   0.77420   1.000
    H173    H    0.00000   0.22387   0.77360   1.000
    H174    H    0.99788   0.72731   0.77356   1.000
    H175    H    0.03089   0.20755   0.67087   1.000
    H176    H    0.02173   0.71100   0.67076   1.000
    H177    H    0.53660   0.20786   0.67158   1.000
    H178    H    0.52740   0.71152   0.67157   1.000
    H179    H    0.51145   0.14701   0.74082   1.000
    H180    H    0.50229   0.65062   0.74073   1.000
    H181    H    0.00000   0.14696   0.74053   1.000
    H182    H    0.00000   0.65039   0.74037   1.000
    C183    C    0.18749   0.48973   0.79648   1.000
    C184    C    0.17820   0.99331   0.79648   1.000
    C185    C    0.69276   0.48973   0.79644   1.000
    C186    C    0.68350   0.99332   0.79645   1.000
    C187    C    0.19221   0.05379   0.79392   1.000
    C188    C    0.18305   0.55739   0.79391   1.000
    C189    C    0.69770   0.05383   0.79385   1.000
    C190    C    0.68851   0.55743   0.79383   1.000
    C191    C    0.16820   0.07471   0.70603   1.000
    C192    C    0.15905   0.57831   0.70602   1.000
    C193    C    0.67359   0.07474   0.70601   1.000
    C194    C    0.66440   0.57833   0.70600   1.000
    C195    C    0.16335   0.13716   0.70337   1.000
    C196    C    0.15420   0.64076   0.70336   1.000
    C197    C    0.66877   0.13719   0.70337   1.000
    C198    C    0.65957   0.64079   0.70336   1.000
    C199    C    0.18278   0.18000   0.78838   1.000
    C200    C    0.17361   0.68360   0.78838   1.000
    C201    C    0.68834   0.18005   0.78835   1.000
    C202    C    0.67915   0.68364   0.78834   1.000
    C203    C    0.20697   0.15908   0.87614   1.000
    C204    C    0.19779   0.66268   0.87614   1.000
    C205    C    0.71277   0.15916   0.87601   1.000
    C206    C    0.49032   0.69289   0.71128   1.000
    C207    C    0.00000   0.18921   0.71082   1.000
    C208    C    0.99610   0.69267   0.71070   1.000
    N209    N    0.15924   0.36239   0.02580   1.000
    N210    N    0.15006   0.86599   0.02590   1.000
    N211    N    0.66543   0.36254   0.02598   1.000
    C212    C    0.71706   0.09661   0.87888   1.000
    C213    C    0.70789   0.60021   0.87885   1.000
    C214    C    0.17844   0.24762   0.78503   1.000
    C215    C    0.16926   0.75122   0.78504   1.000
    C216    C    0.68386   0.24764   0.78510   1.000
    C217    C    0.67464   0.75123   0.78509   1.000
    C218    C    0.05933   0.35975   0.77344   1.000
    C219    C    0.05009   0.86331   0.77340   1.000
    C220    C    0.56506   0.35966   0.77368   1.000
    C221    C    0.55582   0.86324   0.77368   1.000
    C222    C    0.49740   0.36286   0.77855   1.000
    C223    C    0.48816   0.86645   0.77855   1.000
    C224    C    0.00000   0.36301   0.77780   1.000
    C225    C    0.99375   0.86657   0.77787   1.000
    C226    C    0.45085   0.34801   0.69398   1.000
    C227    C    0.44161   0.85158   0.69398   1.000
    C228    C    0.95639   0.34803   0.69337   1.000
    C229    C    0.94714   0.85156   0.69338   1.000
    C230    C    0.38855   0.35239   0.69839   1.000
    C231    C    0.37931   0.85596   0.69839   1.000
    C232    C    0.89405   0.35235   0.69782   1.000
    C233    C    0.88480   0.85590   0.69783   1.000
    C234    C    0.37167   0.37212   0.78733   1.000
    C235    C    0.36243   0.87571   0.78732   1.000
    C236    C    0.87712   0.37218   0.78668   1.000
    C237    C    0.86788   0.87575   0.78668   1.000
    C238    C    0.41821   0.38681   0.87198   1.000
    C239    C    0.40898   0.89042   0.87197   1.000
    C240    C    0.92375   0.38707   0.87125   1.000
    C241    C    0.91451   0.89065   0.87125   1.000
    C242    C    0.48047   0.38200   0.86767   1.000
    C243    C    0.47123   0.88561   0.86766   1.000
    C244    C    0.98602   0.38231   0.86692   1.000
    C245    C    0.97678   0.88588   0.86690   1.000
    C246    C    0.30412   0.37600   0.79184   1.000
    C247    C    0.29488   0.87960   0.79184   1.000
    C248    C    0.80954   0.37598   0.79142   1.000
    C249    C    0.80030   0.87956   0.79143   1.000
    C250    C    0.16597   0.41675   0.08364   1.000
    C251    C    0.15672   0.92035   0.08360   1.000
    C252    C    0.67179   0.41689   0.08361   1.000
    C253    C    0.66259   0.92048   0.08360   1.000
    C254    C    0.16522   0.42065   0.18385   1.000
    C255    C    0.15598   0.92425   0.18384   1.000
    C256    C    0.67092   0.42080   0.18378   1.000
    C257    C    0.66174   0.92440   0.18378   1.000
    C258    C    0.15624   0.36402   0.22493   1.000
    C259    C    0.14709   0.86764   0.22490   1.000
    C260    C    0.66219   0.36420   0.22497   1.000
    C261    C    0.65302   0.86781   0.22499   1.000
    C262    C    0.14905   0.30772   0.16468   1.000
    C263    C    0.13998   0.81134   0.16473   1.000
    C264    C    0.65537   0.30791   0.16484   1.000
    C265    C    0.64619   0.81151   0.16487   1.000
    C266    C    0.15639   0.36267   0.33126   1.000
    C267    C    0.14722   0.86628   0.33128   1.000
    C268    C    0.66215   0.36284   0.33126   1.000
    C269    C    0.65297   0.86645   0.33128   1.000
    C270    C    0.21419   0.37588   0.39597   1.000
    C271    C    0.20500   0.87958   0.39603   1.000
    C272    C    0.71984   0.37625   0.39624   1.000
    C273    C    0.71066   0.87987   0.39627   1.000
    C274    C    0.21536   0.37292   0.49499   1.000
    C275    C    0.20615   0.87662   0.49504   1.000
    C276    C    0.72084   0.37323   0.49521   1.000
    C277    C    0.71165   0.87685   0.49524   1.000
    C278    C    0.10612   0.34514   0.46932   1.000
    C279    C    0.09692   0.84868   0.46929   1.000
    C280    C    0.61163   0.34504   0.46900   1.000
    C281    C    0.60243   0.84865   0.46899   1.000
    C282    C    0.10015   0.34676   0.36843   1.000
    C283    C    0.09097   0.85030   0.36840   1.000
    C284    C    0.60583   0.34672   0.36814   1.000
    C285    C    0.59664   0.85033   0.36814   1.000
    C286    C    0.17421   0.48325   0.24323   1.000
    C287    C    0.16490   0.98685   0.24319   1.000
    C288    C    0.67954   0.48339   0.24304   1.000
    C289    C    0.67037   0.98699   0.24303   1.000
    C290    C    0.03609   0.33274   0.30425   1.000
    C291    C    0.02693   0.83620   0.30417   1.000
    C292    C    0.54187   0.33253   0.30370   1.000
    C293    C    0.53268   0.83614   0.30369   1.000
    C294    C    0.34868   0.03209   0.21854   1.000
    C295    C    0.33942   0.53568   0.21855   1.000
    C296    C    0.85399   0.03209   0.21851   1.000
    C297    C    0.84469   0.53567   0.21851   1.000
    C298    C    0.34367   0.46798   0.22110   1.000
    C299    C    0.33448   0.97158   0.22114   1.000
    C300    C    0.84913   0.46802   0.22108   1.000
    C301    C    0.83998   0.97162   0.22107   1.000
    C302    C    0.36778   0.44708   0.30899   1.000
    C303    C    0.35859   0.95067   0.30898   1.000
    C304    C    0.87314   0.44710   0.30897   1.000
    C305    C    0.86400   0.95070   0.30896   1.000
    C306    C    0.37261   0.38462   0.31163   1.000
    C307    C    0.36341   0.88821   0.31162   1.000
    C308    C    0.87799   0.38465   0.31160   1.000
    C309    C    0.86885   0.88825   0.31162   1.000
    C310    C    0.35303   0.34176   0.22665   1.000
    C311    C    0.34384   0.84536   0.22664   1.000
    C312    C    0.85857   0.34181   0.22661   1.000
    C313    C    0.84941   0.84541   0.22661   1.000
    C314    C    0.32858   0.36264   0.13900   1.000
    C315    C    0.31941   0.86625   0.13898   1.000
    C316    C    0.83439   0.36273   0.13885   1.000
    C317    C    0.82522   0.86633   0.13885   1.000
    C318    C    0.32429   0.42520   0.13613   1.000
    C319    C    0.31512   0.92880   0.13612   1.000
    C320    C    0.83005   0.42528   0.13598   1.000
    C321    C    0.82088   0.92887   0.13598   1.000
    C322    C    0.35755   0.27417   0.22990   1.000
    C323    C    0.34833   0.77776   0.22989   1.000
    C324    C    0.86293   0.27419   0.22995   1.000
    C325    C    0.85375   0.77779   0.22996   1.000
    C326    C    0.47636   0.16217   0.24131   1.000
    C327    C    0.46712   0.66575   0.24131   1.000
    C328    C    0.98209   0.16210   0.24155   1.000
    C329    C    0.97285   0.66566   0.24155   1.000
    C330    C    0.03843   0.15884   0.23712   1.000
    C331    C    0.02919   0.66239   0.23712   1.000
    C332    C    0.54402   0.15896   0.23644   1.000
    C333    C    0.53478   0.66255   0.23640   1.000
    C334    C    0.08504   0.17385   0.32161   1.000
    C335    C    0.07579   0.67738   0.32160   1.000
    C336    C    0.59057   0.17383   0.32101   1.000
    C337    C    0.58133   0.67740   0.32101   1.000
    C338    C    0.14738   0.16951   0.31716   1.000
    C339    C    0.13813   0.67306   0.31717   1.000
    C340    C    0.65287   0.16945   0.31660   1.000
    C341    C    0.64363   0.67303   0.31659   1.000
    C342    C    0.16430   0.14966   0.22830   1.000
    C343    C    0.15506   0.65323   0.22830   1.000
    C344    C    0.66975   0.14970   0.22767   1.000
    C345    C    0.66051   0.65329   0.22766   1.000
    C346    C    0.11767   0.13476   0.14374   1.000
    C347    C    0.10843   0.63834   0.14370   1.000
    C348    C    0.62321   0.13499   0.14302   1.000
    C349    C    0.61397   0.63861   0.14300   1.000
    C350    C    0.05540   0.13953   0.14807   1.000
    C351    C    0.04617   0.64311   0.14807   1.000
    C352    C    0.56095   0.13980   0.14733   1.000
    C353    C    0.55171   0.64341   0.14730   1.000
    C354    C    0.23188   0.14585   0.22356   1.000
    C355    C    0.22264   0.64943   0.22350   1.000
    C356    C    0.73730   0.14581   0.22310   1.000
    C357    C    0.72806   0.64941   0.22314   1.000
    C358    C    0.36959   0.10493   0.93138   1.000
    C359    C    0.36039   0.60853   0.93138   1.000
    C360    C    0.87547   0.10507   0.93136   1.000
    C361    C    0.86622   0.60867   0.93130   1.000
    C362    C    0.37045   0.10102   0.83120   1.000
    C363    C    0.36127   0.60462   0.83120   1.000
    C364    C    0.87620   0.10116   0.83115   1.000
    C365    C    0.86697   0.60477   0.83114   1.000
    C366    C    0.37917   0.15761   0.79000   1.000
    C367    C    0.37000   0.66122   0.79002   1.000
    C368    C    0.88509   0.15778   0.79004   1.000
    C369    C    0.87594   0.66139   0.79006   1.000
    C370    C    0.38599   0.21390   0.85013   1.000
    C371    C    0.37682   0.71751   0.85015   1.000
    C372    C    0.89221   0.21408   0.85027   1.000
    C373    C    0.88314   0.71769   0.85032   1.000
    C374    C    0.38392   0.21315   0.94871   1.000
    C375    C    0.37473   0.71675   0.94870   1.000
    C376    C    0.89024   0.21331   0.94888   1.000
    C377    C    0.88116   0.71692   0.94890   1.000
    C378    C    0.37922   0.15896   0.68371   1.000
    C379    C    0.37004   0.66258   0.68373   1.000
    C380    C    0.88496   0.15913   0.68371   1.000
    C381    C    0.87580   0.66275   0.68373   1.000
    C382    C    0.32153   0.14555   0.61872   1.000
    C383    C    0.31234   0.64917   0.61875   1.000
    C384    C    0.82718   0.14584   0.61896   1.000
    C385    C    0.81800   0.64955   0.61900   1.000
    C386    C    0.32054   0.14857   0.51975   1.000
    C387    C    0.31134   0.65219   0.51978   1.000
    C388    C    0.82603   0.14880   0.51995   1.000
    C389    C    0.81682   0.65251   0.52001   1.000
    C390    C    0.42976   0.17676   0.54600   1.000
    C391    C    0.42056   0.68038   0.54599   1.000
    C392    C    0.93526   0.17673   0.54570   1.000
    C393    C    0.92606   0.68027   0.54566   1.000
    C394    C    0.43554   0.17509   0.64685   1.000
    C395    C    0.42635   0.67870   0.64685   1.000
    C396    C    0.94121   0.17511   0.64658   1.000
    C397    C    0.93204   0.67865   0.64655   1.000
    C398    C    0.36182   0.03842   0.77190   1.000
    C399    C    0.35265   0.54203   0.77195   1.000
    C400    C    0.86728   0.03856   0.77179   1.000
    C401    C    0.85797   0.54217   0.77175   1.000
    C402    C    0.49950   0.18928   0.71130   1.000
    N403    N    0.65622   0.86613   0.02599   1.000
    N404    N    0.16195   0.35768   0.53142   1.000
    N405    N    0.15274   0.86129   0.53143   1.000
    N406    N    0.66736   0.35773   0.53135   1.000
    N407    N    0.65815   0.86134   0.53136   1.000
    N408    N    0.37596   0.15928   0.98900   1.000
    N409    N    0.36676   0.66287   0.98901   1.000
    N410    N    0.88213   0.15942   0.98909   1.000
    N411    N    0.87294   0.66302   0.98910   1.000
    N412    N    0.37403   0.16407   0.48360   1.000
    N413    N    0.36482   0.66768   0.48364   1.000
    N414    N    0.87944   0.16413   0.48356   1.000
    N415    N    0.87023   0.66774   0.48357   1.000
    O416    O    0.17761   0.45562   0.71475   1.000
    O417    O    0.16834   0.95921   0.71475   1.000
    O418    O    0.68293   0.45562   0.71471   1.000
    O419    O    0.67369   0.95921   0.71471   1.000
    O420    O    0.20069   0.47185   0.88040   1.000
    O421    O    0.19144   0.97544   0.88046   1.000
    O422    O    0.70574   0.47184   0.88045   1.000
    O423    O    0.69649   0.97542   0.88045   1.000
    O424    O    0.19160   0.28259   0.86640   1.000
    O425    O    0.18249   0.78619   0.86640   1.000
    O426    O    0.69756   0.28267   0.86650   1.000
    O427    O    0.68833   0.78626   0.86649   1.000
    O428    O    0.16241   0.26483   0.70150   1.000
    O429    O    0.15318   0.76842   0.70152   1.000
    O430    O    0.66716   0.26475   0.70100   1.000
    O431    O    0.65793   0.76834   0.70169   1.000
    O432    O    0.07370   0.35078   0.68890   1.000
    O433    O    0.06446   0.85435   0.68892   1.000
    O434    O    0.57885   0.35072   0.68873   1.000
    O435    O    0.56961   0.85431   0.68870   1.000
    O436    O    0.09708   0.36675   0.85456   1.000
    O437    O    0.08785   0.87033   0.85455   1.000
    O438    O    0.60327   0.36666   0.85431   1.000
    O439    O    0.59403   0.87024   0.85431   1.000
    O440    O    0.26594   0.36672   0.71045   1.000
    O441    O    0.25670   0.87031   0.71045   1.000
    O442    O    0.77102   0.36646   0.71040   1.000
    O443    O    0.76179   0.87004   0.71041   1.000
    O444    O    0.29027   0.38785   0.87571   1.000
    O445    O    0.28104   0.89147   0.87571   1.000
    O446    O    0.79599   0.38808   0.87550   1.000
    O447    O    0.78676   0.89167   0.87550   1.000
    O448    O    0.35849   0.06619   0.30028   1.000
    O449    O    0.34925   0.56978   0.30028   1.000
    O450    O    0.86385   0.06620   0.30024   1.000
    O451    O    0.85457   0.56979   0.30024   1.000
    O452    O    0.33569   0.04998   0.13454   1.000
    O453    O    0.32644   0.55357   0.13454   1.000
    O454    O    0.84074   0.04997   0.13453   1.000
    O455    O    0.83149   0.55356   0.13453   1.000
    O456    O    0.34385   0.23915   0.14850   1.000
    O457    O    0.33462   0.74274   0.14849   1.000
    O458    O    0.84969   0.23921   0.14851   1.000
    O459    O    0.84059   0.74282   0.14850   1.000
    O460    O    0.37425   0.25707   0.31330   1.000
    O461    O    0.36502   0.76065   0.31300   1.000
    O462    O    0.87900   0.25699   0.31347   1.000
    O463    O    0.86977   0.76058   0.31349   1.000
    O464    O    0.46257   0.17110   0.32626   1.000
    O465    O    0.45333   0.67469   0.32626   1.000
    O466    O    0.96772   0.17106   0.32607   1.000
    O467    O    0.95848   0.67463   0.32606   1.000
    O468    O    0.43815   0.15516   0.16068   1.000
    O469    O    0.42891   0.65875   0.16068   1.000
    O470    O    0.94433   0.15508   0.16040   1.000
    O471    O    0.93510   0.65865   0.16043   1.000
    O472    O    0.27039   0.15536   0.30458   1.000
    O473    O    0.26116   0.65895   0.30450   1.000
    O474    O    0.77548   0.15510   0.30454   1.000
    O475    O    0.76624   0.65869   0.30454   1.000
    O476    O    0.24543   0.13374   0.13949   1.000
    O477    O    0.23619   0.63732   0.13949   1.000
    O478    O    0.75114   0.13394   0.13928   1.000
    O479    O    0.74191   0.63756   0.13928   1.000
loop_
    _geom_bond_atom_site_label_1
    _geom_bond_atom_site_label_2
    _geom_bond_distance
    _geom_bond_site_symmetry_2
    _ccdc_geom_bond_type
    H56    C131      1.08864      .   S
    H57    C132      1.08868      .   S
    H58    C133      1.08888      .   S
    H59    C134      1.08884      .   S
    N209   C131      1.34949      .   S
    N209   C250      1.34847      .   S
    N209   Zn26      2.17249  1_554   S
    N210   C132      1.34884      .   S
    N210   C251      1.34770      .   S
    N210   Zn0       2.17324  1_554   S
    N211   C133      1.34880      .   S
    N211   C252      1.34796      .   S
    N211   Zn1       2.17550  1_554   S
    N403   C134      1.34885      .   S
    N403   C253      1.34779      .   S
    N403   Zn2       2.17528  1_554   S
    H51    C253      1.09062      .   S
    H50    C252      1.09074      .   S
    H49    C251      1.09047      .   S
    H48    C250      1.09067      .   S
    C131   C262      1.38691      .   S
    C132   C263      1.38680      .   S
    C133   C264      1.38678      .   S
    C134   C265      1.38686      .   S
    H113   C320      1.08875      .   S
    H114   C321      1.08876      .   S
    H112   C319      1.08888      .   S
    H111   C318      1.08882      .   S
    H109   C316      1.08877      .   S
    H110   C317      1.08882      .   S
    H108   C315      1.08888      .   S
    H107   C314      1.08892      .   S
    H126   C349      1.08922      .   S
    H125   C348      1.08927      .   S
    H123   C346      1.08934      .   S
    H124   C347      1.08878      .   S
    H130   C353      1.08887      .   S
    H129   C352      1.08920      .   S
    H128   C351      1.08925      .   S
    H127   C350      1.08903      .   S
    C253   C257      1.39786      .   S
    C251   C255      1.39827      .   S
    C252   C256      1.39781      .   S
    C250   C254      1.39789      .   S
    Zn7    O452      2.06147      .   S
    Zn7    O476      2.08274      .   S
    Zn7    O456      2.07209      .   S
    Zn7    O468      2.10169      .   S
    Zn7    N408      2.17532  1_554   S
    Zn8    O453      2.06145      .   S
    Zn8    O477      2.08273      .   S
    Zn8    O457      2.07205      .   S
    Zn8    O469      2.10169      .   S
    Zn8    N409      2.17560  1_554   S
    Zn9    O454      2.06088      .   S
    Zn9    O478      2.09660      .   S
    Zn9    O458      2.07242      .   S
    Zn9    O470      2.09676      .   S
    Zn9    N410      2.17338  1_554   S
    Zn10   O455      2.06084      .   S
    Zn10   O479      2.09663      .   S
    Zn10   O459      2.07239      .   S
    Zn10   O471      2.09683      .   S
    Zn10   N411      2.17370  1_554   S
    O455   C297      1.27550      .   S
    O454   C296      1.27555      .   S
    O452   C294      1.27516      .   S
    O453   C295      1.27526      .   S
    C320   C316      1.39250      .   S
    C320   C300      1.40298      .   S
    C321   C317      1.39228      .   S
    C321   C301      1.40302      .   S
    C319   C315      1.39223      .   S
    C319   C299      1.40293      .   S
    C318   C314      1.39246      .   S
    C318   C298      1.40243      .   S
    C317   C313      1.40345      .   S
    C316   C312      1.40339      .   S
    C315   C311      1.40351      .   S
    C314   C310      1.40342      .   S
    O478   C356      1.27121      .   S
    O479   C357      1.27175      .   S
    O477   C355      1.27191      .   S
    O476   C354      1.27270      .   S
    C349   C353      1.39265      .   S
    C349   C345      1.40339      .   S
    C348   C352      1.39273      .   S
    C348   C344      1.40331      .   S
    C347   C351      1.39268      .   S
    C347   C343      1.40402      .   S
    C346   C350      1.39279      .   S
    C346   C342      1.40363      .   S
    C353   C333      1.40308      .   S
    C352   C332      1.40332      .   S
    C351   C331      1.40376      .   S
    C350   C330      1.40383      .   S
    O457   C323      1.27466      .   S
    O459   C325      1.27500      .   S
    O456   C322      1.27466      .   S
    O458   C324      1.27485      .   S
    O470   C328      1.27069      .   S
    O471   C329      1.27028      .   S
    O469   C327      1.26992      .   S
    O468   C326      1.26990      .   S
    C262   H52       1.08819      .   S
    C262   C258      1.39836      .   S
    C263   H53       1.08834      .   S
    C263   C259      1.39804      .   S
    C264   H54       1.08846      .   S
    C264   C260      1.39846      .   S
    C265   H55       1.08825      .   S
    C265   C261      1.39854      .   S
    C257   C261      1.40927      .   S
    C257   C289      1.50131      .   S
    C256   C260      1.40933      .   S
    C256   C288      1.50140      .   S
    C255   C259      1.40878      .   S
    C255   C287      1.50138      .   S
    C254   C258      1.40942      .   S
    C254   C286      1.50139      .   S
    H78    C289      1.04229  1_545   S
    H79    C288      1.09561      .   S
    H76    C287      1.04420  1_545   S
    H77    C286      1.09569      .   S
    C296   C301      1.31162  1_545   S
    C296   O450      1.27251      .   S
    C297   C300      1.50397      .   S
    C297   O451      1.27258      .   S
    C294   C299      1.31283  1_545   S
    C294   O448      1.27260      .   S
    C295   C298      1.50408      .   S
    C295   O449      1.27246      .   S
    C301   C305      1.40390      .   S
    C300   C304      1.40384      .   S
    C298   C302      1.40427      .   S
    C299   C303      1.40378      .   S
    C356   C344      1.50407      .   S
    C356   O474      1.27567      .   S
    C357   C345      1.50389      .   S
    C357   O475      1.27524      .   S
    C355   C343      1.50492      .   S
    C355   O473      1.27439      .   S
    C354   C342      1.50480      .   S
    C354   O472      1.27450      .   S
    C259   C267      1.48889      .   S
    C258   C266      1.48810      .   S
    C260   C268      1.48821      .   S
    C261   C269      1.48825      .   S
    C312   C324      1.50406      .   S
    C312   C308      1.40339      .   S
    C313   C325      1.50397      .   S
    C313   C309      1.40362      .   S
    C311   C323      1.50413      .   S
    C311   C307      1.40358      .   S
    C310   C322      1.50406      .   S
    C310   C306      1.40371      .   S
    C345   C341      1.40396      .   S
    C344   C340      1.40402      .   S
    C343   C339      1.40424      .   S
    C342   C338      1.40414      .   S
    C323   O461      1.26950      .   S
    C322   O460      1.27308      .   S
    C324   O462      1.27297      .   S
    C325   O463      1.27299      .   S
    C333   C327      1.50414      .   S
    C333   C337      1.40313      .   S
    C332   C326      1.50407      .   S
    C332   C336      1.40275      .   S
    C330   C328      1.25626  1_455   S
    C330   C334      1.40278      .   S
    C331   C329      1.25630  1_455   S
    C331   C335      1.40255      .   S
    H86    C292      1.09786      .   S
    H87    C293      1.09795      .   S
    C327   O465      1.27701      .   S
    C326   O464      1.27699      .   S
    H85    C291      1.09798      .   S
    H84    C290      1.09808      .   S
    C328   O466      1.27661      .   S
    C329   O467      1.27650      .   S
    C289   H83       1.09928      .   S
    C289   H75       1.09992      .   S
    C288   H82       1.09924      .   S
    C288   H74       1.09803      .   S
    C287   H81       1.09928      .   S
    C287   H73       1.09996      .   S
    C286   H80       1.09919      .   S
    C286   H72       1.10004      .   S
    H95    C293      1.10095      .   S
    H94    C292      1.10076      .   S
    H93    C291      1.10075      .   S
    H92    C290      1.10068      .   S
    O450   Zn13      2.10153      .   S
    O451   Zn14      2.10143      .   S
    O449   Zn12      2.10222      .   S
    O448   Zn11      2.10224      .   S
    C293   H89       1.09644      .   S
    C293   C285      1.50231      .   S
    C292   H88       1.09675      .   S
    C292   C284      1.50225      .   S
    C291   H91       0.94021      .   S
    C291   C283      1.50240      .   S
    C290   H90       1.08059      .   S
    C290   C282      1.50246      .   S
    O473   Zn12      2.08833      .   S
    O475   Zn14      2.08142      .   S
    O474   Zn13      2.08142      .   S
    O472   Zn11      2.08830      .   S
    C305   C309      1.39264      .   S
    C305   H99       1.08966      .   S
    C304   C308      1.39259      .   S
    C304   H98       1.08953      .   S
    C303   C307      1.39267      .   S
    C303   H97       1.08960      .   S
    C302   C306      1.39272      .   S
    C302   H96       1.08951      .   S
    C308   H105      1.08545      .   S
    C309   H106      1.08963      .   S
    C307   H104      1.08965      .   S
    C306   H103      1.08972      .   S
    O461   Zn12      2.08450      .   S
    O460   Zn11      2.08371      .   S
    O462   Zn13      2.08275      .   S
    O463   Zn14      2.08267      .   S
    C341   C337      1.39162      .   S
    C341   H122      1.08858      .   S
    C340   C336      1.39165      .   S
    C340   H121      1.08883      .   S
    C338   C334      1.39242      .   S
    C338   H119      1.08905      .   S
    C339   C335      1.39227      .   S
    C339   H120      1.08890      .   S
    C337   H118      1.08907      .   S
    C336   H117      1.08896      .   S
    C335   H116      1.08436      .   S
    C334   H115      1.08908      .   S
    O467   Zn14      2.06490      .   S
    O466   Zn13      2.06483      .   S
    O465   Zn12      2.05670      .   S
    O464   Zn11      2.05692      .   S
    C268   C284      1.41125      .   S
    C268   C272      1.39887      .   S
    C266   C282      1.41123      .   S
    C266   C270      1.39890      .   S
    C269   C285      1.41129      .   S
    C269   C273      1.39894      .   S
    C267   C283      1.41126      .   S
    C267   C271      1.39882      .   S
    Zn13   N414      2.07092      .   S
    Zn14   N415      2.07096      .   S
    Zn11   N412      2.07118      .   S
    Zn12   N413      2.07165      .   S
    C284   C280      1.39893      .   S
    C285   C281      1.39881      .   S
    C283   C279      1.39896      .   S
    C282   C278      1.39893      .   S
    H60    C270      1.08970      .   S
    H61    C271      1.08982      .   S
    H62    C272      1.08973      .   S
    H63    C273      1.08962      .   S
    C270   C274      1.38723      .   S
    C271   C275      1.38715      .   S
    C272   C276      1.38722      .   S
    C273   C277      1.38725      .   S
    H154   C389      1.09565      .   S
    H151   C386      1.08914      .   S
    H152   C387      1.08907      .   S
    H153   C388      1.08905      .   S
    C281   H71       1.09112      .   S
    C281   N407      1.34849      .   S
    C280   H70       1.09101      .   S
    C280   N406      1.34852      .   S
    C279   H69       1.09100      .   S
    C279   N405      1.34863      .   S
    C278   H68       1.09113      .   S
    C278   N404      1.34854      .   S
    N414   C388      1.34900      .   S
    N414   C392      1.34863      .   S
    N415   C389      1.34908      .   S
    N415   C393      1.34847      .   S
    N412   C386      1.34924      .   S
    N412   C390      1.34886      .   S
    N413   C387      1.34894      .   S
    N413   C391      1.34868      .   S
    C274   N404      1.34903      .   S
    C274   H64       1.08918      .   S
    C275   N405      1.34900      .   S
    C275   H65       1.08928      .   S
    C276   N406      1.34897      .   S
    C276   H66       1.08930      .   S
    C277   N407      1.34924      .   S
    C277   H67       1.08906      .   S
    H158   C393      1.09110      .   S
    H157   C392      1.09097      .   S
    H156   C391      1.09082      .   S
    H155   C390      1.09093      .   S
    C386   C382      1.38725      .   S
    C387   C383      1.38722      .   S
    C388   C384      1.38715      .   S
    C389   C385      1.38679      .   S
    N406   Zn5       2.07165      .   S
    N407   Zn6       2.07160      .   S
    N404   Zn3       2.07098      .   S
    N405   Zn4       2.07094      .   S
    C393   C397      1.39892      .   S
    C392   C396      1.39882      .   S
    C391   C395      1.39895      .   S
    C390   C394      1.39879      .   S
    C382   H147      1.08966      .   S
    C382   C378      1.39894      .   S
    C383   H148      1.08925      .   S
    C383   C379      1.39903      .   S
    C384   H149      1.08960      .   S
    C384   C380      1.39882      .   S
    C385   H150      1.08953      .   S
    C385   C381      1.39903      .   S
    H34    C228      1.08912      .   S
    H35    C229      1.08908      .   S
    H33    C227      1.09147      .   S
    H32    C226      1.08913      .   S
    H38    C232      1.08890      .   S
    H39    C233      1.08905      .   S
    H36    C230      1.08892      .   S
    H37    C231      1.08883      .   S
    H20    C196      1.08979      .   S
    H19    C195      1.08981      .   S
    H22    C198      1.08972      .   S
    H21    C197      1.08976      .   S
    H16    C192      1.08964      .   S
    H15    C191      1.08954      .   S
    H18    C194      1.08965      .   S
    H17    C193      1.08973      .   S
    C397   C381      1.41128      .   S
    C397   C208      1.50228      .   S
    C396   C380      1.41133      .   S
    C396   C207      1.41234  1_655   S
    C395   C379      1.41105      .   S
    C395   C206      1.50236      .   S
    C394   C378      1.41113      .   S
    C394   C402      1.50231      .   S
    H176   C208      0.92179  1_455   S
    H175   C207      0.99835      .   S
    H178   C206      1.09650      .   S
    H177   C402      1.09660      .   S
    Zn6    O435      2.05683      .   S
    Zn6    O431      2.08371      .   S
    Zn6    O443      2.08833      .   S
    Zn6    O419      2.10203      .   S
    Zn5    O434      2.05670      .   S
    Zn5    O430      2.08143      .   S
    Zn5    O442      2.08830      .   S
    Zn5    O418      2.10201      .   S
    Zn3    O432      2.06480      .   S
    Zn3    O428      2.08267      .   S
    Zn3    O440      2.08142      .   S
    Zn3    O416      2.10143      .   S
    Zn4    O433      2.06483      .   S
    Zn4    O429      2.08275      .   S
    Zn4    O441      2.08142      .   S
    Zn4    O417      2.10150      .   S
    C378   C366      1.48823      .   S
    C380   C368      1.48817      .   S
    C379   C367      1.48821      .   S
    C381   C369      1.48816      .   S
    O435   C221      1.27738      .   S
    O434   C220      1.27701      .   S
    O432   C218      1.27690      .   S
    O433   C219      1.27608      .   S
    C228   C232      1.39232      .   S
    C228   C224      1.36713  1_655   S
    C229   C233      1.39242      .   S
    C229   C225      1.40278      .   S
    C226   C230      1.39165      .   S
    C226   C222      1.40273      .   S
    C227   C231      1.39165      .   S
    C227   C223      1.40275      .   S
    C232   C236      1.40412      .   S
    C233   C237      1.40401      .   S
    C231   C235      1.40402      .   S
    C230   C234      1.40403      .   S
    O430   C216      1.28194      .   S
    O428   C214      1.27303      .   S
    O429   C215      1.27301      .   S
    O431   C217      1.27321      .   S
    C198   C194      1.39272      .   S
    C198   C202      1.40359      .   S
    C196   C192      1.39264      .   S
    C196   C200      1.40369      .   S
    C197   C193      1.39245      .   S
    C197   C201      1.40370      .   S
    C195   C191      1.39264      .   S
    C195   C199      1.40361      .   S
    C194   C190      1.40356      .   S
    C193   C189      1.40378      .   S
    C192   C188      1.40378      .   S
    C191   C187      1.40384      .   S
    O442   C248      1.27460      .   S
    O443   C249      1.27450      .   S
    O441   C247      1.27513      .   S
    O440   C246      1.27514      .   S
    C208   H182      1.05884  1_655   S
    C208   H174      1.09825      .   S
    C207   H181      1.04758      .   S
    C207   H173      1.10658      .   S
    C206   H180      1.10076      .   S
    C206   H172      1.09780      .   S
    C402   H179      1.10102      .   S
    C402   H171      1.09795      .   S
    O419   C186      1.27271      .   S
    O418   C185      1.27256      .   S
    O416   C183      1.27248      .   S
    O417   C184      1.27241      .   S
    H162   C401      1.09994      .   S
    H161   C400      1.09996      .   S
    H160   C399      1.10001      .   S
    H159   C398      1.09978      .   S
    H169   C400      1.09926      .   S
    H167   C398      1.09878      .   S
    H168   C399      1.09916      .   S
    H170   C401      1.09909      .   S
    C401   H165      1.09549      .   S
    C401   C365      1.50143      .   S
    C400   H166      1.17015      .   S
    C400   C364      1.50144      .   S
    C398   H164      1.16761      .   S
    C398   C362      1.50181      .   S
    C399   H163      1.09570      .   S
    C399   C363      1.50134      .   S
    C219   C225      1.25637  1_455   S
    C219   O437      1.27069      .   S
    C218   C224      1.32124      .   S
    C218   O436      1.27029      .   S
    C221   C223      1.50407      .   S
    C221   O439      1.26992      .   S
    C220   C222      1.50403      .   S
    C220   O438      1.26992      .   S
    C224   C244      1.37597  1_455   S
    C225   C245      1.40358      .   S
    C223   C243      1.40332      .   S
    C222   C242      1.40333      .   S
    C214   C199      1.50397      .   S
    C214   O424      1.27399      .   S
    C215   C200      1.50401      .   S
    C215   O425      1.27385      .   S
    C217   C202      1.50401      .   S
    C217   O427      1.27477      .   S
    C216   C201      1.50386      .   S
    C216   O426      1.27477      .   S
    C237   C249      1.50483      .   S
    C237   C241      1.40373      .   S
    C236   C248      1.50476      .   S
    C236   C240      1.40372      .   S
    C235   C247      1.50394      .   S
    C235   C239      1.40343      .   S
    C234   C246      1.50386      .   S
    C234   C238      1.40330      .   S
    C202   C100      1.40332      .   S
    C201   C205      1.40351      .   S
    C200   C204      1.40339      .   S
    C199   C203      1.40345      .   S
    C366   C362      1.40920      .   S
    C366   C370      1.39846      .   S
    C367   C363      1.40926      .   S
    C367   C371      1.39846      .   S
    C368   C364      1.40933      .   S
    C368   C372      1.39843      .   S
    C369   C365      1.40921      .   S
    C369   C373      1.39841      .   S
    C248   O446      1.27280      .   S
    C249   O447      1.27261      .   S
    C247   O445      1.27186      .   S
    C246   O444      1.27189      .   S
    C190   C185      1.50417      .   S
    C190   C213      1.40295      .   S
    C189   C186      1.31283  1_545   S
    C189   C212      1.40303      .   S
    C188   C183      1.50419      .   S
    C188   C102      1.40298      .   S
    C187   C184      1.31183  1_545   S
    C187   C101      1.40302      .   S
    C185   O422      1.27526      .   S
    C186   O423      1.27526      .   S
    C184   O421      1.27543      .   S
    C183   O420      1.27464      .   S
    H139   C370      1.08845      .   S
    H140   C371      1.08819      .   S
    H141   C372      1.08834      .   S
    H142   C373      1.08839      .   S
    C365   C361      1.39720      .   S
    C364   C360      1.39781      .   S
    C363   C359      1.39799      .   S
    C362   C358      1.39791      .   S
    C370   C374      1.38682      .   S
    C371   C375      1.38650      .   S
    C372   C376      1.38687      .   S
    C373   C377      1.38649      .   S
    O438   Zn1       2.10169      .   S
    O439   Zn2       2.10169      .   S
    O437   Zn0       2.09682      .   S
    O436   Zn26      2.09683      .   S
    O425   Zn0       2.07251      .   S
    O424   Zn26      2.07230      .   S
    O427   Zn2       2.07187      .   S
    O426   Zn1       2.07205      .   S
    C245   C241      1.39284      .   S
    C245   H47       0.95670  1_655   S
    C244   C240      1.39274      .   S
    C244   H46       0.90936  1_655   S
    C243   C239      1.39251      .   S
    C243   H45       1.08910      .   S
    C242   C238      1.39273      .   S
    C242   H44       1.08920      .   S
    C240   H42       1.08934      .   S
    C241   H43       1.08917      .   S
    C239   H41       1.08943      .   S
    C238   H40       1.08922      .   S
    O446   Zn1       2.08274      .   S
    O447   Zn2       2.08295      .   S
    O444   Zn26      2.09662      .   S
    O445   Zn0       2.09658      .   S
    C100   C213      1.39245      .   S
    C100   H27       1.08871      .   S
    C205   C212      1.39224      .   S
    C205   H25       1.08888      .   S
    C203   C101      1.39228      .   S
    C203   H23       1.08891      .   S
    C204   C102      1.39250      .   S
    C204   H24       1.08877      .   S
    C213   H31       1.08889      .   S
    C212   H30       1.08876      .   S
    C102   H29       1.08875      .   S
    C101   H28       1.08880      .   S
    O420   Zn26      2.06121      .   S
    O422   Zn1       2.06145      .   S
    O423   Zn2       2.06147      .   S
    O421   Zn0       2.06110      .   S
    C361   H138      1.09118      .   S
    C361   N411      1.34804      .   S
    C360   H137      1.09083      .   S
    C360   N410      1.34773      .   S
    C358   H135      1.09080      .   S
    C358   N408      1.34786      .   S
    C359   H136      1.09010      .   S
    C359   N409      1.34776      .   S
    C375   N409      1.34914      .   S
    C375   H144      1.08893      .   S
    C374   N408      1.34879      .   S
    C374   H143      1.08888      .   S
    C376   N410      1.34875      .   S
    C376   H145      1.08865      .   S
    C377   N411      1.34899      .   S
    C377   H146      1.08883      .   S
    Zn26   Zn3       2.89362      .   S
    Zn0    Zn4       2.89362      .   S
    Zn1    Zn5       2.89821      .   S
    Zn2    Zn6       2.89820      .   S
    Zn7    Zn11      2.89820      .   S
    Zn8    Zn12      2.89821      .   S
    Zn9    Zn13      2.89363      .   S
    Zn10   Zn14      2.89362      .   S
