# CIF file generated by openbabel 2.4.90, see http://openbabel.sf.net
data_I
_chemical_name_common ''
_cell_length_a 21.85
_cell_length_b 21.892
_cell_length_c 13.972
_cell_angle_alpha 95.2
_cell_angle_beta 99.23
_cell_angle_gamma 99.89
_space_group_name_H-M_alt 'P 1'
_space_group_name_Hall 'P 1'
loop_
    _symmetry_equiv_pos_as_xyz
    x,y,z
loop_
    _atom_site_label
    _atom_site_type_symbol
    _atom_site_fract_x
    _atom_site_fract_y
    _atom_site_fract_z
    _atom_site_occupancy
    Zr0     Zr   0.19553   0.37802   0.89234   1.000
    Zr1     Zr   0.18630   0.88161   0.89234   1.000
    Zr2     Zr   0.70195   0.37816   0.89247   1.000
    Zr3     Zr   0.69271   0.88174   0.89247   1.000
    Zr4     Zr   0.16824   0.35857   0.68104   1.000
    Zr5     Zr   0.15900   0.86216   0.68104   1.000
    Zr6     Zr   0.67302   0.35849   0.68090   1.000
    Zr7     Zr   0.66379   0.86208   0.68090   1.000
    Zr8     Zr   0.33947   0.14367   0.12252   1.000
    Zr9     Zr   0.33023   0.64725   0.12252   1.000
    Zr10    Zr   0.84588   0.14379   0.12265   1.000
    Zr11    Zr   0.83665   0.64738   0.12265   1.000
    Zr12    Zr   0.36839   0.16333   0.33409   1.000
    Zr13    Zr   0.35916   0.66692   0.33409   1.000
    Zr14    Zr   0.87318   0.16325   0.33395   1.000
    Zr15    Zr   0.86394   0.66684   0.33395   1.000
    Zr16    Zr   0.18749   0.48973   0.79648   1.000
    Zr17    Zr   0.17820   0.99331   0.79648   1.000
    Zr18    Zr   0.69276   0.48973   0.79644   1.000
    Zr19    Zr   0.68350   0.99332   0.79645   1.000
    Zr20    Zr   0.17844   0.24762   0.78503   1.000
    Zr21    Zr   0.16926   0.75122   0.78504   1.000
    Zr22    Zr   0.68385   0.24764   0.78510   1.000
    Zr23    Zr   0.67464   0.75123   0.78509   1.000
    Zr24    Zr   0.05933   0.35975   0.77344   1.000
    Zr25    Zr   0.05009   0.86331   0.77340   1.000
    Zr26    Zr   0.56506   0.35966   0.77368   1.000
    Zr27    Zr   0.55582   0.86324   0.77368   1.000
    Zr28    Zr   0.30412   0.37600   0.79184   1.000
    Zr29    Zr   0.29488   0.87960   0.79184   1.000
    Zr30    Zr   0.80954   0.37598   0.79142   1.000
    Zr31    Zr   0.80030   0.87956   0.79143   1.000
    Zr32    Zr   0.34868   0.03209   0.21854   1.000
    Zr33    Zr   0.33942   0.53567   0.21855   1.000
    Zr34    Zr   0.85399   0.03209   0.21851   1.000
    Zr35    Zr   0.84469   0.53567   0.21851   1.000
    Zr36    Zr   0.35755   0.27417   0.22990   1.000
    Zr37    Zr   0.34833   0.77776   0.22989   1.000
    Zr38    Zr   0.86293   0.27419   0.22995   1.000
    Zr39    Zr   0.85375   0.77779   0.22996   1.000
    Zr40    Zr   0.47636   0.16216   0.24131   1.000
    Zr41    Zr   0.46712   0.66575   0.24131   1.000
    Zr42    Zr   0.98209   0.16210   0.24155   1.000
    Zr43    Zr   0.97285   0.66566   0.24155   1.000
    Zr44    Zr   0.23188   0.14585   0.22356   1.000
    Zr45    Zr   0.22265   0.64943   0.22350   1.000
    Zr46    Zr   0.73730   0.14581   0.22310   1.000
    Zr47    Zr   0.72806   0.64941   0.22314   1.000
    Zr48    Zr   0.17761   0.45562   0.71475   1.000
    Zr49    Zr   0.16834   0.95921   0.71475   1.000
    Zr50    Zr   0.68293   0.45562   0.71471   1.000
    Zr51    Zr   0.67369   0.95921   0.71471   1.000
    Zr52    Zr   0.20069   0.47185   0.88040   1.000
    Zr53    Zr   0.19144   0.97543   0.88046   1.000
    Zr54    Zr   0.70574   0.47184   0.88045   1.000
    Zr55    Zr   0.69649   0.97542   0.88045   1.000
    Zr56    Zr   0.19160   0.28259   0.86640   1.000
    Zr57    Zr   0.18249   0.78619   0.86640   1.000
    Zr58    Zr   0.69756   0.28267   0.86650   1.000
    Zr59    Zr   0.68833   0.78626   0.86649   1.000
    Zr60    Zr   0.16241   0.26483   0.70150   1.000
    Zr61    Zr   0.15318   0.76842   0.70152   1.000
    Zr62    Zr   0.66716   0.26475   0.70100   1.000
    Zr63    Zr   0.65793   0.76834   0.70169   1.000
    Zr64    Zr   0.07370   0.35078   0.68890   1.000
    Zr65    Zr   0.06446   0.85435   0.68892   1.000
    Zr66    Zr   0.57885   0.35072   0.68873   1.000
    Zr67    Zr   0.56961   0.85431   0.68870   1.000
    Zr68    Zr   0.09708   0.36675   0.85456   1.000
    Zr69    Zr   0.08785   0.87033   0.85455   1.000
    Zr70    Zr   0.60327   0.36666   0.85431   1.000
    Zr71    Zr   0.59403   0.87024   0.85431   1.000
    Zr72    Zr   0.26594   0.36672   0.71045   1.000
    Zr73    Zr   0.25670   0.87031   0.71045   1.000
    Zr74    Zr   0.77102   0.36646   0.71040   1.000
    Zr75    Zr   0.76179   0.87004   0.71041   1.000
    Zr76    Zr   0.29027   0.38785   0.87571   1.000
    Zr77    Zr   0.28104   0.89147   0.87571   1.000
    Zr78    Zr   0.79599   0.38808   0.87550   1.000
    Zr79    Zr   0.78676   0.89167   0.87550   1.000
    Zr80    Zr   0.35849   0.06619   0.30028   1.000
    Zr81    Zr   0.34925   0.56978   0.30028   1.000
    Zr82    Zr   0.86385   0.06620   0.30024   1.000
    Zr83    Zr   0.85457   0.56979   0.30024   1.000
    Zr84    Zr   0.33569   0.04998   0.13454   1.000
    Zr85    Zr   0.32644   0.55357   0.13454   1.000
    Zr86    Zr   0.84074   0.04997   0.13453   1.000
    Zr87    Zr   0.83149   0.55356   0.13453   1.000
    Zr88    Zr   0.34385   0.23915   0.14850   1.000
    Zr89    Zr   0.33462   0.74274   0.14849   1.000
    Zr90    Zr   0.84969   0.23921   0.14851   1.000
    Zr91    Zr   0.84059   0.74282   0.14850   1.000
    Zr92    Zr   0.37425   0.25707   0.31330   1.000
    Zr93    Zr   0.36502   0.76065   0.31300   1.000
    Zr94    Zr   0.87900   0.25699   0.31347   1.000
    Zr95    Zr   0.86977   0.76058   0.31349   1.000
    Zr96    Zr   0.46257   0.17110   0.32626   1.000
    Zr97    Zr   0.45333   0.67469   0.32626   1.000
    Zr98    Zr   0.96772   0.17106   0.32607   1.000
    Zr99    Zr   0.95848   0.67463   0.32606   1.000
    Zr100   Zr   0.43815   0.15516   0.16068   1.000
    Zr101   Zr   0.42891   0.65875   0.16068   1.000
    Zr102   Zr   0.94433   0.15508   0.16040   1.000
    Zr103   Zr   0.93510   0.65865   0.16043   1.000
    Zr104   Zr   0.27039   0.15536   0.30458   1.000
    Zr105   Zr   0.26116   0.65895   0.30450   1.000
    Zr106   Zr   0.77548   0.15510   0.30454   1.000
    Zr107   Zr   0.76624   0.65869   0.30454   1.000
    Zr108   Zr   0.24543   0.13374   0.13949   1.000
    Zr109   Zr   0.23619   0.63732   0.13949   1.000
    Zr110   Zr   0.75114   0.13394   0.13928   1.000
    Zr111   Zr   0.74191   0.63756   0.13928   1.000
    O112    O    0.33758   0.09682   0.12853   1.000
    O113    O    0.29245   0.13870   0.13101   1.000
    O114    O    0.34166   0.19141   0.13551   1.000
    O115    O    0.38881   0.14941   0.14160   1.000
    O116    O    0.32834   0.60041   0.12853   1.000
    O117    O    0.28321   0.64229   0.13101   1.000
    O118    O    0.33243   0.69499   0.13551   1.000
    O119    O    0.37957   0.65300   0.14160   1.000
    O120    O    0.84331   0.09688   0.12859   1.000
    O121    O    0.79851   0.13886   0.13096   1.000
    O122    O    0.84779   0.19150   0.13558   1.000
    O123    O    0.89511   0.14944   0.14153   1.000
    O124    O    0.83407   0.60047   0.12859   1.000
    O125    O    0.78928   0.64247   0.13096   1.000
    O126    O    0.83862   0.69510   0.13558   1.000
    O127    O    0.88587   0.65302   0.14154   1.000
    O128    O    0.83809   0.54462   0.17652   1.000
    O129    O    0.84736   0.04103   0.17652   1.000
    O130    O    0.34218   0.04104   0.17654   1.000
    O131    O    0.33293   0.54462   0.17655   1.000
    O132    O    0.74422   0.13987   0.18119   1.000
    O133    O    0.73499   0.64348   0.18121   1.000
    O134    O    0.22942   0.64338   0.18149   1.000
    O135    O    0.23865   0.13979   0.18152   1.000
    O136    O    0.34147   0.76025   0.18919   1.000
    O137    O    0.84717   0.76031   0.18923   1.000
    O138    O    0.35070   0.25666   0.18920   1.000
    O139    O    0.85631   0.25670   0.18923   1.000
    O140    O    0.96321   0.15859   0.20097   1.000
    O141    O    0.95398   0.66216   0.20099   1.000
    O142    O    0.44801   0.66225   0.20099   1.000
    O143    O    0.45726   0.15866   0.20099   1.000
    O144    O    0.85892   0.04915   0.25938   1.000
    O145    O    0.84963   0.55273   0.25938   1.000
    O146    O    0.35359   0.04914   0.25941   1.000
    O147    O    0.34434   0.55273   0.25942   1.000
    O148    O    0.75639   0.15046   0.26382   1.000
    O149    O    0.74715   0.65405   0.26384   1.000
    O150    O    0.24190   0.65419   0.26400   1.000
    O151    O    0.25114   0.15060   0.26407   1.000
    O152    O    0.35667   0.76921   0.27144   1.000
    O153    O    0.36590   0.26562   0.27160   1.000
    O154    O    0.87096   0.26559   0.27171   1.000
    O155    O    0.86176   0.76918   0.27172   1.000
    O156    O    0.46022   0.67022   0.28378   1.000
    O157    O    0.46946   0.16663   0.28378   1.000
    O158    O    0.97491   0.16658   0.28381   1.000
    O159    O    0.96567   0.67015   0.28380   1.000
    O160    O    0.86852   0.11473   0.31710   1.000
    O161    O    0.85926   0.61831   0.31710   1.000
    O162    O    0.35421   0.61835   0.31718   1.000
    O163    O    0.36344   0.11476   0.31718   1.000
    O164    O    0.31016   0.66293   0.31929   1.000
    O165    O    0.81509   0.66276   0.31925   1.000
    O166    O    0.82433   0.15917   0.31925   1.000
    O167    O    0.31939   0.15935   0.31933   1.000
    O168    O    0.36209   0.71379   0.32354   1.000
    O169    O    0.37132   0.21020   0.32370   1.000
    O170    O    0.87609   0.21012   0.32371   1.000
    O171    O    0.86686   0.71371   0.32372   1.000
    O172    O    0.91121   0.67074   0.33000   1.000
    O173    O    0.92045   0.16715   0.33001   1.000
    O174    O    0.40625   0.67080   0.33017   1.000
    O175    O    0.41548   0.16721   0.33017   1.000
    O176    O    0.61670   0.85819   0.68480   1.000
    O177    O    0.66086   0.81521   0.69129   1.000
    O178    O    0.71279   0.86606   0.69566   1.000
    O179    O    0.66874   0.91065   0.69780   1.000
    O180    O    0.62593   0.35461   0.68481   1.000
    O181    O    0.67009   0.31162   0.69095   1.000
    O182    O    0.72202   0.36248   0.69565   1.000
    O183    O    0.67797   0.40706   0.69780   1.000
    O184    O    0.12097   0.35467   0.68497   1.000
    O185    O    0.16532   0.31170   0.69127   1.000
    O186    O    0.21709   0.36264   0.69575   1.000
    O187    O    0.17293   0.40710   0.69790   1.000
    O188    O    0.11173   0.85825   0.68498   1.000
    O189    O    0.15609   0.81529   0.69128   1.000
    O190    O    0.20785   0.86623   0.69575   1.000
    O191    O    0.16367   0.91068   0.69790   1.000
    O192    O    0.56272   0.85878   0.73119   1.000
    O193    O    0.57196   0.35519   0.73120   1.000
    O194    O    0.06651   0.35526   0.73117   1.000
    O195    O    0.05727   0.85883   0.73116   1.000
    O196    O    0.67551   0.25620   0.74305   1.000
    O197    O    0.17042   0.25623   0.74326   1.000
    O198    O    0.16122   0.75982   0.74328   1.000
    O199    O    0.66628   0.75979   0.74339   1.000
    O200    O    0.79028   0.37122   0.75091   1.000
    O201    O    0.78104   0.87480   0.75092   1.000
    O202    O    0.27579   0.87495   0.75114   1.000
    O203    O    0.28503   0.37136   0.75114   1.000
    O204    O    0.67859   0.97626   0.75558   1.000
    O205    O    0.68785   0.47268   0.75557   1.000
    O206    O    0.18255   0.47268   0.75561   1.000
    O207    O    0.17327   0.97626   0.75561   1.000
    O208    O    0.06897   0.86682   0.81397   1.000
    O209    O    0.07820   0.36325   0.81400   1.000
    O210    O    0.57493   0.86674   0.81400   1.000
    O211    O    0.58417   0.36316   0.81400   1.000
    O212    O    0.18502   0.26510   0.82571   1.000
    O213    O    0.17587   0.76871   0.82572   1.000
    O214    O    0.68148   0.76875   0.82579   1.000
    O215    O    0.69071   0.26516   0.82580   1.000
    O216    O    0.80276   0.38203   0.83346   1.000
    O217    O    0.79353   0.88562   0.83347   1.000
    O218    O    0.28796   0.88554   0.83377   1.000
    O219    O    0.29719   0.38192   0.83377   1.000
    O220    O    0.69925   0.48079   0.83844   1.000
    O221    O    0.69000   0.98437   0.83845   1.000
    O222    O    0.18482   0.98437   0.83847   1.000
    O223    O    0.19409   0.48079   0.83844   1.000
    O224    O    0.65261   0.37241   0.87339   1.000
    O225    O    0.64337   0.87599   0.87339   1.000
    O226    O    0.13707   0.87597   0.87345   1.000
    O227    O    0.14631   0.37239   0.87345   1.000
    O228    O    0.18439   0.83390   0.87937   1.000
    O229    O    0.19356   0.33031   0.87937   1.000
    O230    O    0.69052   0.83400   0.87948   1.000
    O231    O    0.69975   0.33041   0.87949   1.000
    O232    O    0.74897   0.38312   0.88399   1.000
    O233    O    0.73973   0.88670   0.88399   1.000
    O234    O    0.24290   0.38294   0.88402   1.000
    O235    O    0.23367   0.88654   0.88402   1.000
    O236    O    0.19811   0.42494   0.88637   1.000
    O237    O    0.70385   0.42500   0.88646   1.000
    O238    O    0.69460   0.92858   0.88646   1.000
    O239    O    0.18887   0.92852   0.88640   1.000
    O240    O    0.18188   0.36830   0.78669   1.000
    O241    O    0.17265   0.87189   0.78669   1.000
    O242    O    0.68748   0.36832   0.78668   1.000
    O243    O    0.67825   0.87191   0.78668   1.000
    O244    O    0.35393   0.15350   0.22831   1.000
    O245    O    0.34470   0.65708   0.22831   1.000
    O246    O    0.85953   0.15352   0.22830   1.000
    O247    O    0.85030   0.65711   0.22830   1.000
    N248    N    0.13584   0.87777   0.27706   1.000
    O249    O    0.15201   0.87579   0.11809   1.000
    O250    O    0.14585   0.86974   0.44165   1.000
    N251    N    0.64968   0.37455   0.27697   1.000
    O252    O    0.66668   0.37245   0.11810   1.000
    O253    O    0.65993   0.36633   0.44155   1.000
    N254    N    0.43452   0.36721   0.78301   1.000
    O255    O    0.48288   0.36424   0.77956   1.000
    O256    O    0.38621   0.37063   0.78630   1.000
    N257    N    0.14396   0.37445   0.27706   1.000
    O258    O    0.16067   0.37233   0.11807   1.000
    O259    O    0.15453   0.36629   0.44165   1.000
    N260    N    0.10138   0.15452   0.23264   1.000
    O261    O    0.05582   0.15750   0.23599   1.000
    O262    O    0.14973   0.15114   0.22928   1.000
    N263    N    0.88751   0.65096   0.73788   1.000
    O264    O    0.87730   0.65913   0.57332   1.000
    O265    O    0.87116   0.65308   0.89688   1.000
    N266    N    0.64120   0.87788   0.27698   1.000
    O267    O    0.65783   0.87591   0.11811   1.000
    O268    O    0.65108   0.86980   0.44156   1.000
    N269    N    0.69313   0.11694   0.79115   1.000
    O270    O    0.68961   0.16539   0.78894   1.000
    O271    O    0.69186   0.07026   0.79315   1.000
    N272    N    0.39099   0.14721   0.73800   1.000
    O273    O    0.38110   0.15545   0.57342   1.000
    O274    O    0.37435   0.14934   0.89688   1.000
    N275    N    0.38251   0.65087   0.73800   1.000
    O276    O    0.36550   0.65296   0.89688   1.000
    O277    O    0.37225   0.65908   0.57343   1.000
    N278    N    0.60690   0.15461   0.23198   1.000
    O279    O    0.65521   0.15118   0.22868   1.000
    O280    O    0.55854   0.15759   0.23543   1.000
    N281    N    0.09213   0.65808   0.23259   1.000
    O282    O    0.04658   0.66105   0.23596   1.000
    O283    O    0.14049   0.65470   0.22925   1.000
    N284    N    0.92947   0.87089   0.78235   1.000
    O285    O    0.97569   0.86792   0.77899   1.000
    O286    O    0.88178   0.87427   0.78570   1.000
    N287    N    0.93749   0.36733   0.78234   1.000
    O288    O    0.89041   0.37071   0.78570   1.000
    O289    O    0.98358   0.36436   0.77898   1.000
    N290    N    0.18755   0.11689   0.79121   1.000
    O291    O    0.18638   0.07022   0.79321   1.000
    O292    O    0.18408   0.16535   0.78896   1.000
    N293    N    0.34824   0.40487   0.22385   1.000
    O294    O    0.35176   0.35642   0.22606   1.000
    O295    O    0.34489   0.45335   0.22184   1.000
    N296    N    0.85380   0.40492   0.22374   1.000
    O297    O    0.85036   0.45338   0.22177   1.000
    O298    O    0.85728   0.35646   0.22601   1.000
    N299    N    0.68394   0.62054   0.79113   1.000
    O300    O    0.68042   0.66899   0.78892   1.000
    O301    O    0.68729   0.57206   0.79313   1.000
    N302    N    0.89517   0.14732   0.73793   1.000
    O303    O    0.88574   0.15550   0.57334   1.000
    O304    O    0.87959   0.14946   0.89690   1.000
    N305    N    0.33905   0.90846   0.22385   1.000
    O306    O    0.34257   0.86001   0.22606   1.000
    O307    O    0.34032   0.95515   0.22184   1.000
    N308    N    0.84464   0.90852   0.22378   1.000
    O309    O    0.84581   0.95519   0.22178   1.000
    O310    O    0.84811   0.86006   0.22603   1.000
    N311    N    0.42528   0.87080   0.78299   1.000
    O312    O    0.47364   0.86783   0.77955   1.000
    O313    O    0.37697   0.87423   0.78628   1.000
    N314    N    0.17838   0.62049   0.79121   1.000
    O315    O    0.18183   0.57203   0.79320   1.000
    O316    O    0.17491   0.66895   0.78896   1.000
    N317    N    0.59766   0.65820   0.23197   1.000
    O318    O    0.54930   0.66118   0.23541   1.000
    O319    O    0.64597   0.65478   0.22868   1.000
loop_
    _geom_bond_atom_site_label_1
    _geom_bond_atom_site_label_2
    _geom_bond_distance
    _geom_bond_site_symmetry_2
    _ccdc_geom_bond_type
    Zr8    O112      1.03074      .   S
    Zr84   O112      1.03074      .   S
    Zr8    O113      1.04144      .   S
    Zr108  O113      1.04144      .   S
    Zr8    O114      1.03600      .   S
    Zr88   O114      1.03600      .   S
    Zr8    O115      1.05087      .   S
    Zr100  O115      1.05087      .   S
    Zr9    O116      1.03074      .   S
    Zr85   O116      1.03074      .   S
    Zr9    O117      1.04144      .   S
    Zr109  O117      1.04144      .   S
    Zr9    O118      1.03599      .   S
    Zr89   O118      1.03599      .   S
    Zr9    O119      1.05083      .   S
    Zr101  O119      1.05083      .   S
    Zr10   O120      1.03045      .   S
    Zr86   O120      1.03045      .   S
    Zr10   O121      1.04830      .   S
    Zr110  O121      1.04830      .   S
    Zr10   O122      1.03621      .   S
    Zr90   O122      1.03621      .   S
    Zr10   O123      1.04840      .   S
    Zr102  O123      1.04840      .   S
    Zr11   O124      1.03045      .   S
    Zr87   O124      1.03045      .   S
    Zr11   O125      1.04827      .   S
    Zr111  O125      1.04827      .   S
    Zr11   O126      1.03620      .   S
    Zr91   O126      1.03620      .   S
    Zr11   O127      1.04838      .   S
    Zr103  O127      1.04838      .   S
    Zr87   O128      0.63774      .   S
    Zr35   O128      0.63774      .   S
    Zr86   O129      0.63776      .   S
    Zr34   O129      0.63776      .   S
    Zr84   O130      0.63760      .   S
    Zr32   O130      0.63760      .   S
    Zr85   O131      0.63765      .   S
    Zr33   O131      0.63765      .   S
    Zr110  O132      0.63563      .   S
    Zr46   O132      0.63563      .   S
    Zr111  O133      0.63590      .   S
    Zr47   O133      0.63590      .   S
    Zr109  O134      0.63590      .   S
    Zr45   O134      0.63590      .   S
    Zr108  O135      0.63630      .   S
    Zr44   O135      0.63630      .   S
    Zr89   O136      0.63737      .   S
    Zr37   O136      0.63737      .   S
    Zr91   O137      0.63747      .   S
    Zr39   O137      0.63747      .   S
    Zr88   O138      0.63735      .   S
    Zr36   O138      0.63735      .   S
    Zr90   O139      0.63740      .   S
    Zr38   O139      0.63740      .   S
    Zr102  O140      0.63534      .   S
    Zr42   O140      0.63534      .   S
    Zr103  O141      0.63516      .   S
    Zr43   O141      0.63516      .   S
    Zr101  O142      0.63492      .   S
    Zr41   O142      0.63492      .   S
    Zr100  O143      0.63492      .   S
    Zr40   O143      0.63492      .   S
    Zr34   O144      0.63625      .   S
    Zr82   O144      0.63625      .   S
    Zr35   O145      0.63625      .   S
    Zr83   O145      0.63625      .   S
    Zr32   O146      0.63632      .   S
    Zr80   O146      0.63632      .   S
    Zr33   O147      0.63627      .   S
    Zr81   O147      0.63627      .   S
    Zr46   O148      0.63783      .   S
    Zr106  O148      0.63783      .   S
    Zr47   O149      0.63759      .   S
    Zr107  O149      0.63759      .   S
    Zr45   O150      0.63715      .   S
    Zr105  O150      0.63715      .   S
    Zr44   O151      0.63725      .   S
    Zr104  O151      0.63725      .   S
    Zr37   O152      0.63476      .   S
    Zr93   O152      0.63476      .   S
    Zr36   O153      0.63659      .   S
    Zr92   O153      0.63659      .   S
    Zr38   O154      0.63650      .   S
    Zr94   O154      0.63650      .   S
    Zr39   O155      0.63651      .   S
    Zr95   O155      0.63651      .   S
    Zr41   O156      0.63847      .   S
    Zr97   O156      0.63847      .   S
    Zr40   O157      0.63848      .   S
    Zr96   O157      0.63848      .   S
    Zr42   O158      0.63830      .   S
    Zr98   O158      0.63830      .   S
    Zr43   O159      0.63825      .   S
    Zr99   O159      0.63825      .   S
    Zr82   O160      1.05073      .   S
    Zr14   O160      1.05073      .   S
    Zr83   O161      1.05074      .   S
    Zr15   O161      1.05074      .   S
    Zr81   O162      1.05103      .   S
    Zr13   O162      1.05103      .   S
    Zr80   O163      1.05106      .   S
    Zr12   O163      1.05106      .   S
    Zr105  O164      1.04419      .   S
    Zr13   O164      1.04419      .   S
    Zr107  O165      1.04076      .   S
    Zr15   O165      1.04076      .   S
    Zr106  O166      1.04074      .   S
    Zr14   O166      1.04074      .   S
    Zr104  O167      1.04416      .   S
    Zr12   O167      1.04416      .   S
    Zr93   O168      1.04233      .   S
    Zr13   O168      1.04233      .   S
    Zr92   O169      1.04183      .   S
    Zr12   O169      1.04183      .   S
    Zr94   O170      1.04134      .   S
    Zr14   O170      1.04134      .   S
    Zr95   O171      1.04131      .   S
    Zr15   O171      1.04131      .   S
    Zr99   O172      1.03246      .   S
    Zr15   O172      1.03246      .   S
    Zr98   O173      1.03245      .   S
    Zr14   O173      1.03245      .   S
    Zr97   O174      1.02840      .   S
    Zr13   O174      1.02840      .   S
    Zr96   O175      1.02842      .   S
    Zr12   O175      1.02842      .   S
    Zr7    O176      1.02836      .   S
    Zr67   O176      1.02836      .   S
    Zr7    O177      1.04185      .   S
    Zr63   O177      1.04185      .   S
    Zr7    O178      1.04416      .   S
    Zr75   O178      1.04416      .   S
    Zr7    O179      1.05106      .   S
    Zr51   O179      1.05106      .   S
    Zr6    O180      1.02840      .   S
    Zr66   O180      1.02840      .   S
    Zr6    O181      1.04070      .   S
    Zr62   O181      1.04070      .   S
    Zr6    O182      1.04417      .   S
    Zr74   O182      1.04417      .   S
    Zr6    O183      1.05103      .   S
    Zr50   O183      1.05103      .   S
    Zr4    O184      1.03240      .   S
    Zr64   O184      1.03240      .   S
    Zr4    O185      1.04132      .   S
    Zr60   O185      1.04132      .   S
    Zr4    O186      1.04077      .   S
    Zr72   O186      1.04077      .   S
    Zr4    O187      1.05073      .   S
    Zr48   O187      1.05073      .   S
    Zr5    O188      1.03243      .   S
    Zr65   O188      1.03243      .   S
    Zr5    O189      1.04133      .   S
    Zr61   O189      1.04133      .   S
    Zr5    O190      1.04075      .   S
    Zr73   O190      1.04075      .   S
    Zr5    O191      1.05075      .   S
    Zr49   O191      1.05075      .   S
    Zr67   O192      0.63869      .   S
    Zr27   O192      0.63869      .   S
    Zr66   O193      0.63847      .   S
    Zr26   O193      0.63847      .   S
    Zr64   O194      0.63845      .   S
    Zr24   O194      0.63845      .   S
    Zr65   O195      0.63804      .   S
    Zr25   O195      0.63804      .   S
    Zr62   O196      0.64096      .   S
    Zr22   O196      0.64096      .   S
    Zr60   O197      0.63651      .   S
    Zr20   O197      0.63651      .   S
    Zr61   O198      0.63650      .   S
    Zr21   O198      0.63650      .   S
    Zr63   O199      0.63659      .   S
    Zr23   O199      0.63659      .   S
    Zr74   O200      0.63725      .   S
    Zr30   O200      0.63725      .   S
    Zr75   O201      0.63725      .   S
    Zr31   O201      0.63725      .   S
    Zr73   O202      0.63756      .   S
    Zr29   O202      0.63756      .   S
    Zr72   O203      0.63754      .   S
    Zr28   O203      0.63754      .   S
    Zr51   O204      0.63631      .   S
    Zr19   O204      0.63631      .   S
    Zr50   O205      0.63627      .   S
    Zr18   O205      0.63627      .   S
    Zr48   O206      0.63625      .   S
    Zr16   O206      0.63625      .   S
    Zr49   O207      0.63625      .   S
    Zr17   O207      0.63625      .   S
    Zr25   O208      0.63535      .   S
    Zr69   O208      0.63535      .   S
    Zr24   O209      0.63516      .   S
    Zr68   O209      0.63516      .   S
    Zr27   O210      0.63492      .   S
    Zr71   O210      0.63492      .   S
    Zr26   O211      0.63492      .   S
    Zr70   O211      0.63492      .   S
    Zr20   O212      0.63696      .   S
    Zr56   O212      0.63696      .   S
    Zr21   O213      0.63696      .   S
    Zr57   O213      0.63696      .   S
    Zr23   O214      0.63735      .   S
    Zr59   O214      0.63735      .   S
    Zr22   O215      0.63737      .   S
    Zr58   O215      0.63737      .   S
    Zr30   O216      0.63636      .   S
    Zr78   O216      0.63636      .   S
    Zr31   O217      0.63629      .   S
    Zr79   O217      0.63629      .   S
    Zr29   O218      0.63595      .   S
    Zr77   O218      0.63595      .   S
    Zr28   O219      0.63596      .   S
    Zr76   O219      0.63596      .   S
    Zr18   O220      0.63765      .   S
    Zr54   O220      0.63765      .   S
    Zr19   O221      0.63760      .   S
    Zr55   O221      0.63760      .   S
    Zr17   O222      0.63776      .   S
    Zr53   O222      0.63776      .   S
    Zr16   O223      0.63735      .   S
    Zr52   O223      0.63735      .   S
    Zr70   O224      1.05083      .   S
    Zr2    O224      1.05083      .   S
    Zr71   O225      1.05087      .   S
    Zr3    O225      1.05087      .   S
    Zr69   O226      1.04841      .   S
    Zr1    O226      1.04841      .   S
    Zr68   O227      1.04838      .   S
    Zr0    O227      1.04838      .   S
    Zr57   O228      1.03624      .   S
    Zr1    O228      1.03624      .   S
    Zr56   O229      1.03624      .   S
    Zr0    O229      1.03624      .   S
    Zr59   O230      1.03599      .   S
    Zr3    O230      1.03599      .   S
    Zr58   O231      1.03599      .   S
    Zr2    O231      1.03599      .   S
    Zr78   O232      1.04144      .   S
    Zr2    O232      1.04144      .   S
    Zr79   O233      1.04145      .   S
    Zr3    O233      1.04145      .   S
    Zr76   O234      1.04828      .   S
    Zr0    O234      1.04828      .   S
    Zr77   O235      1.04832      .   S
    Zr1    O235      1.04832      .   S
    Zr52   O236      1.03053      .   S
    Zr0    O236      1.03053      .   S
    Zr54   O237      1.03075      .   S
    Zr2    O237      1.03075      .   S
    Zr55   O238      1.03075      .   S
    Zr3    O238      1.03075      .   S
    Zr53   O239      1.03045      .   S
    Zr1    O239      1.03045      .   S
    Zr0    O240      1.44681      .   S
    Zr4    O240      1.44681      .   S
    Zr1    O241      1.44681      .   S
    Zr5    O241      1.44681      .   S
    Zr2    O242      1.44910      .   S
    Zr6    O242      1.44910      .   S
    Zr3    O243      1.44910      .   S
    Zr7    O243      1.44910      .   S
    Zr8    O244      1.44910      .   S
    Zr12   O244      1.44910      .   S
    Zr9    O245      1.44910      .   S
    Zr13   O245      1.44910      .   S
    Zr10   O246      1.44681      .   S
    Zr14   O246      1.44681      .   S
    Zr11   O247      1.44681      .   S
    Zr15   O247      1.44681      .   S
    N248   O249      2.30210      .   S
    Zr1    O249      3.36523  1_556   S
    N248   O250      2.30043      .   S
    Zr5    O250      3.33267      .   S
    N251   O252      2.30640      .   S
    Zr2    O252      3.37119  1_556   S
    N251   O253      2.30082      .   S
    Zr6    O253      3.33306      .   S
    N254   O255      1.07811      .   S
    Zr26   O255      1.83010      .   S
    N254   O256      1.07902      .   S
    Zr28   O256      1.83091      .   S
    N257   O258      2.30604      .   S
    Zr0    O258      3.36919  1_556   S
    N257   O259      2.30035      .   S
    Zr4    O259      3.33233      .   S
    N260   O261      1.01683      .   S
    Zr42   O261      1.64494  1_655   S
    N260   O262      1.07995      .   S
    Zr44   O262      1.83237      .   S
    N263   O264      2.30038      .   S
    Zr15   O264      3.33246      .   S
    N263   O265      2.30365      .   S
    Zr11   O265      3.36702  1_554   S
    N266   O267      2.30400      .   S
    Zr3    O267      3.36841  1_556   S
    N266   O268      2.30061      .   S
    Zr7    O268      3.33306      .   S
    N269   O270      1.07938      .   S
    Zr22   O270      1.83137      .   S
    N269   O271      1.02071      .   S
    Zr19   O271      1.66849  1_565   S
    N272   O273      2.30133      .   S
    Zr12   O273      3.33346      .   S
    N272   O274      2.30390      .   S
    Zr8    O274      3.36819  1_554   S
    N275   O276      2.30654      .   S
    Zr9    O276      3.37136  1_554   S
    N275   O277      2.30067      .   S
    Zr13   O277      3.33290      .   S
    N278   O279      1.07902      .   S
    Zr46   O279      1.83097      .   S
    N278   O280      1.07812      .   S
    Zr40   O280      1.83011      .   S
    N281   O282      1.01687      .   S
    Zr43   O282      1.64497  1_655   S
    N281   O283      1.07992      .   S
    Zr45   O283      1.83242      .   S
    N284   O285      1.03140      .   S
    Zr25   O285      1.65958  1_455   S
    N284   O286      1.06540      .   S
    Zr31   O286      1.81782      .   S
    N287   O288      1.05208      .   S
    Zr30   O288      1.80447      .   S
    N287   O289      1.02842      .   S
    Zr24   O289      1.68902  1_455   S
    N290   O291      1.02063      .   S
    Zr17   O291      1.66793  1_565   S
    N290   O292      1.07941      .   S
    Zr20   O292      1.83140      .   S
    N293   O294      1.07939      .   S
    Zr36   O294      1.83139      .   S
    N293   O295      1.07889      .   S
    Zr33   O295      1.83086      .   S
    N296   O297      1.07895      .   S
    Zr35   O297      1.83102      .   S
    N296   O298      1.07945      .   S
    Zr38   O298      1.83143      .   S
    N299   O300      1.07938      .   S
    Zr23   O300      1.83138      .   S
    N299   O301      1.07888      .   S
    Zr18   O301      1.83090      .   S
    N302   O303      2.30176      .   S
    Zr14   O303      3.33405      .   S
    N302   O304      2.29800      .   S
    Zr10   O304      3.36029  1_554   S
    N305   O306      1.07938      .   S
    Zr37   O306      1.83138      .   S
    N305   O307      1.02071      .   S
    Zr32   O307      1.66849  1_545   S
    N308   O309      1.02062      .   S
    Zr34   O309      1.66792  1_545   S
    N308   O310      1.07941      .   S
    Zr39   O310      1.83139      .   S
    N311   O312      1.07809      .   S
    Zr27   O312      1.83007      .   S
    N311   O313      1.07902      .   S
    Zr29   O313      1.83089      .   S
    N314   O315      1.07899      .   S
    Zr16   O315      1.83106      .   S
    N314   O316      1.07941      .   S
    Zr21   O316      1.83140      .   S
    N317   O318      1.07810      .   S
    Zr41   O318      1.83015      .   S
    N317   O319      1.07900      .   S
    Zr47   O319      1.83091      .   S
