# CIF file generated by openbabel 2.4.90, see http://openbabel.sf.net
data_I
_chemical_name_common ''
_cell_length_a 21.85
_cell_length_b 21.892
_cell_length_c 13.972
_cell_angle_alpha 95.2
_cell_angle_beta 99.23
_cell_angle_gamma 99.89
_space_group_name_H-M_alt 'P 1'
_space_group_name_Hall 'P 1'
loop_
    _symmetry_equiv_pos_as_xyz
    x,y,z
loop_
    _atom_site_label
    _atom_site_type_symbol
    _atom_site_fract_x
    _atom_site_fract_y
    _atom_site_fract_z
    _atom_site_occupancy
    N0      N    0.14396   0.37445   0.27706   1.000
    N1      N    0.93749   0.36733   0.78234   1.000
    N2      N    0.64120   0.87788   0.27699   1.000
    N3      N    0.43452   0.36721   0.78301   1.000
    N4      N    0.60690   0.15461   0.23198   1.000
    N5      N    0.13584   0.87777   0.27706   1.000
    N6      N    0.17838   0.62049   0.79121   1.000
    N7      N    0.34824   0.40487   0.22385   1.000
    N8      N    0.89517   0.14732   0.73793   1.000
    N9      N    0.64968   0.37455   0.27697   1.000
    N10     N    0.38251   0.65087   0.73800   1.000
    N11     N    0.33905   0.90846   0.22385   1.000
    N12     N    0.39099   0.14721   0.73800   1.000
    N13     N    0.69313   0.11694   0.79115   1.000
    N14     N    0.92947   0.87089   0.78235   1.000
    N15     N    0.42528   0.87080   0.78299   1.000
    N16     N    0.09213   0.65808   0.23259   1.000
    N17     N    0.88752   0.65096   0.73788   1.000
    N18     N    0.18755   0.11689   0.79121   1.000
    N19     N    0.84464   0.90852   0.22378   1.000
    N20     N    0.68395   0.62054   0.79113   1.000
    N21     N    0.10138   0.15452   0.23264   1.000
    N22     N    0.59766   0.65820   0.23197   1.000
    N23     N    0.85380   0.40492   0.22374   1.000
    Zr24    Zr   0.84986   0.65707   0.22834   1.000
    O25     O    0.86051   0.65508   0.06261   1.000
    O26     O    0.84899   0.75857   0.22719   1.000
    O27     O    0.94822   0.65906   0.23215   1.000
    O28     O    0.74792   0.65592   0.22851   1.000
    O29     O    0.85011   0.55523   0.22506   1.000
    O30     O    0.86358   0.65810   0.40083   1.000
    Zr31    Zr   0.68777   0.36832   0.78654   1.000
    O32     O    0.78909   0.36951   0.78612   1.000
    O33     O    0.58532   0.36628   0.78305   1.000
    O34     O    0.68753   0.47019   0.78984   1.000
    O35     O    0.67722   0.37038   0.95232   1.000
    O36     O    0.68869   0.26686   0.78774   1.000
    O37     O    0.67385   0.36732   0.61405   1.000
    Zr38    Zr   0.85909   0.15348   0.22834   1.000
    O39     O    0.85245   0.05434   0.22506   1.000
    O40     O    0.85819   0.25497   0.22717   1.000
    O41     O    0.95746   0.15549   0.23216   1.000
    O42     O    0.75715   0.15233   0.22851   1.000
    O43     O    0.86934   0.15147   0.06262   1.000
    O44     O    0.87242   0.15449   0.40084   1.000
    Zr45    Zr   0.35365   0.15350   0.22840   1.000
    O46     O    0.35271   0.25496   0.22723   1.000
    O47     O    0.45610   0.15554   0.23191   1.000
    O48     O    0.25169   0.15232   0.22884   1.000
    O49     O    0.34698   0.05433   0.22512   1.000
    O50     O    0.36400   0.15142   0.06264   1.000
    O51     O    0.36738   0.15448   0.40091   1.000
    Zr52    Zr   0.18232   0.36833   0.78663   1.000
    O53     O    0.08295   0.36635   0.78281   1.000
    O54     O    0.18320   0.26684   0.78779   1.000
    O55     O    0.18207   0.47018   0.78992   1.000
    O56     O    0.28426   0.36949   0.78646   1.000
    O57     O    0.16842   0.36731   0.61414   1.000
    O58     O    0.17150   0.37033   0.95235   1.000
    Zr59    Zr   0.67853   0.87190   0.78659   1.000
    O60     O    0.67947   0.77045   0.78776   1.000
    O61     O    0.57608   0.86986   0.78307   1.000
    O62     O    0.68520   0.97108   0.78987   1.000
    O63     O    0.78015   0.87309   0.78615   1.000
    O64     O    0.66818   0.87391   0.95235   1.000
    O65     O    0.66481   0.87085   0.61407   1.000
    Zr66    Zr   0.17309   0.87192   0.78664   1.000
    O67     O    0.17400   0.77044   0.78780   1.000
    O68     O    0.07439   0.86992   0.78281   1.000
    O69     O    0.27503   0.87308   0.78646   1.000
    O70     O    0.17973   0.97107   0.78992   1.000
    O71     O    0.16255   0.87385   0.95236   1.000
    O72     O    0.15947   0.87083   0.61414   1.000
    Zr73    Zr   0.34442   0.65709   0.22836   1.000
    O74     O    0.44686   0.65913   0.23189   1.000
    O75     O    0.24245   0.65590   0.22881   1.000
    O76     O    0.35496   0.65503   0.06262   1.000
    O77     O    0.35833   0.65809   0.40090   1.000
    O78     O    0.34349   0.75855   0.22721   1.000
    O79     O    0.34465   0.55522   0.22510   1.000
loop_
    _geom_bond_atom_site_label_1
    _geom_bond_atom_site_label_2
    _geom_bond_distance
    _geom_bond_site_symmetry_2
    _ccdc_geom_bond_type
    Zr24   O25       2.36138      .   S
    N17    O25       4.66316  1_556   S
    Zr24   O26       2.22674      .   S
    N19    O26       3.30477      .   S
    Zr24   O27       2.13401      .   S
    N16    O27       3.14727  1_455   S
    Zr24   O28       2.22372      .   S
    N22    O28       3.30009      .   S
    Zr24   O29       2.22687      .   S
    N23    O29       3.30385      .   S
    Zr24   O30       2.37793      .   S
    N17    O30       4.67397      .   S
    Zr31   O32       2.21053      .   S
    N1     O32       3.25995      .   S
    Zr31   O33       2.22375      .   S
    N3     O33       3.29843      .   S
    Zr31   O34       2.22738      .   S
    N20    O34       3.30434      .   S
    Zr31   O35       2.36130      .   S
    N9     O35       4.66536  1_554   S
    Zr31   O36       2.22631      .   S
    N13    O36       3.30432      .   S
    Zr31   O37       2.37799      .   S
    N9     O37       4.67444      .   S
    Zr38   O39       2.14621      .   S
    N19    O39       3.16566  1_565   S
    Zr38   O40       2.22677      .   S
    N23    O40       3.30487      .   S
    Zr38   O41       2.13406      .   S
    N21    O41       3.14731  1_455   S
    Zr38   O42       2.22361      .   S
    N4     O42       3.30001      .   S
    Zr38   O43       2.35893      .   S
    N8     O43       4.65528  1_556   S
    Zr38   O44       2.37850      .   S
    N8     O44       4.67587      .   S
    Zr45   O46       2.22624      .   S
    N7     O46       3.30432      .   S
    Zr45   O47       2.22372      .   S
    N4     O47       3.29840      .   S
    Zr45   O48       2.22454      .   S
    N21    O48       3.30188      .   S
    Zr45   O49       2.14673      .   S
    N11    O49       3.16632  1_565   S
    Zr45   O50       2.35995      .   S
    N12    O50       4.66163  1_556   S
    Zr45   O51       2.37840      .   S
    N12    O51       4.67532      .   S
    Zr52   O53       2.15612      .   S
    N1     O53       3.18098  1_655   S
    Zr52   O54       2.22674      .   S
    N18    O54       3.30477      .   S
    Zr52   O55       2.22687      .   S
    N6     O55       3.30392      .   S
    Zr52   O56       2.22370      .   S
    N3     O56       3.30007      .   S
    Zr52   O57       2.37787      .   S
    N0     O57       4.67390      .   S
    Zr52   O58       2.36215      .   S
    N0     O58       4.66621  1_554   S
    Zr59   O60       2.22627      .   S
    N20    O60       3.30425      .   S
    Zr59   O61       2.22373      .   S
    N15    O61       3.29838      .   S
    Zr59   O62       2.14677      .   S
    N13    O62       3.16633  1_545   S
    Zr59   O63       2.21724      .   S
    N14    O63       3.27999      .   S
    Zr59   O64       2.36003      .   S
    N2     O64       4.66182  1_554   S
    Zr59   O65       2.37827      .   S
    N2     O65       4.67455      .   S
    Zr66   O67       2.22674      .   S
    N6     O67       3.30482      .   S
    Zr66   O68       2.14137      .   S
    N14    O68       3.16923  1_655   S
    Zr66   O69       2.22360      .   S
    N15    O69       3.30001      .   S
    Zr66   O70       2.14619      .   S
    N18    O70       3.16569  1_545   S
    Zr66   O71       2.36076      .   S
    N5     O71       4.66105  1_554   S
    Zr66   O72       2.37797      .   S
    N5     O72       4.67412      .   S
    Zr73   O74       2.22368      .   S
    N22    O74       3.29832      .   S
    Zr73   O75       2.22455      .   S
    N16    O75       3.30189      .   S
    Zr73   O76       2.36081      .   S
    N10    O76       4.66501  1_556   S
    Zr73   O77       2.37849      .   S
    N10    O77       4.67479      .   S
    Zr73   O78       2.22624      .   S
    N11    O78       3.30429      .   S
    Zr73   O79       2.22740      .   S
    N7     O79       3.30441      .   S
