# CIF file generated by openbabel 2.4.90, see http://openbabel.sf.net
data_I
_chemical_name_common ''
_cell_length_a 5.945
_cell_length_b 7.474
_cell_length_c 15.5861
_cell_angle_alpha 89.787
_cell_angle_beta 86.3205
_cell_angle_gamma 89.557
_space_group_name_H-M_alt 'P 1'
_space_group_name_Hall 'P 1'
loop_
    _symmetry_equiv_pos_as_xyz
    x,y,z
loop_
    _atom_site_label
    _atom_site_type_symbol
    _atom_site_fract_x
    _atom_site_fract_y
    _atom_site_fract_z
    _atom_site_occupancy
    H0      H    0.93323   0.18567   0.47878   1.000
    H1      H    0.56931   0.18562   0.02333   1.000
    H2      H    0.43064   0.82999   0.97670   1.000
    H3      H    0.06671   0.82995   0.52126   1.000
    C4      C    0.96141   0.32767   0.48843   1.000
    C5      C    0.54001   0.32768   0.01277   1.000
    C6      C    0.54497   0.39462   0.92881   1.000
    C7      C    0.00680   0.43578   0.41591   1.000
    C8      C    0.50506   0.57853   0.91536   1.000
    C9      C    0.04529   0.61953   0.42817   1.000
    C10     C    0.45993   0.68793   0.98727   1.000
    C11     C    0.03853   0.68794   0.51160   1.000
    C12     C    0.99315   0.57983   0.58413   1.000
    C13     C    0.45497   0.62099   0.07123   1.000
    C14     C    0.95465   0.39609   0.57187   1.000
    C15     C    0.49488   0.43709   0.08468   1.000
loop_
    _geom_bond_atom_site_label_1
    _geom_bond_atom_site_label_2
    _geom_bond_distance
    _geom_bond_site_symmetry_2
    _ccdc_geom_bond_type
    C5     H1        1.08826      .   S
    C5     C15       1.40061      .   S
    C5     C6        1.39790  1_554   S
    C13    C15       1.41022      .   S
    C13    C10       1.39788  1_554   S
    C7     C9        1.40973      .   S
    C7     C4        1.40029  1_455   S
    C9     C11       1.39719      .   S
    H0     C4        1.08826      .   S
    C4     C14       1.39720      .   S
    C11    H3        1.08827      .   S
    C11    C12       1.40029  1_455   S
    C14    C12       1.40971      .   S
    C8     C6        1.41022      .   S
    C8     C10       1.40061      .   S
    H2     C10       1.08825      .   S
