# CIF file generated by openbabel 2.4.90, see http://openbabel.sf.net
data_I
_chemical_name_common ''
_cell_length_a 5.945
_cell_length_b 7.474
_cell_length_c 15.5861
_cell_angle_alpha 89.787
_cell_angle_beta 86.3205
_cell_angle_gamma 89.557
_space_group_name_H-M_alt 'P 1'
_space_group_name_Hall 'P 1'
loop_
    _symmetry_equiv_pos_as_xyz
    x,y,z
loop_
    _atom_site_label
    _atom_site_type_symbol
    _atom_site_fract_x
    _atom_site_fract_y
    _atom_site_fract_z
    _atom_site_occupancy
    C0      C    0.52593   0.66850   0.82829   1.000
    C1      C    0.08463   0.75323   0.35681   1.000
    C2      C    0.58423   0.25953   0.85832   1.000
    C3      C    0.02855   0.34537   0.32932   1.000
    C4      C    0.91532   0.26239   0.64322   1.000
    C5      C    0.47402   0.34712   0.17175   1.000
    C6      C    0.97139   0.67024   0.67071   1.000
    C7      C    0.41572   0.75608   0.14172   1.000
    O8      O    0.77291   0.17994   0.84980   1.000
    O9      O    0.09135   0.18281   0.33196   1.000
    O10     O    0.41946   0.21838   0.81283   1.000
    O11     O    0.98936   0.42879   0.26019   1.000
    O12     O    0.58814   0.83034   0.83033   1.000
    O13     O    0.27401   0.82933   0.34748   1.000
    O14     O    0.48664   0.58577   0.75941   1.000
    O15     O    0.91904   0.79699   0.31176   1.000
    O16     O    0.90859   0.83280   0.66808   1.000
    O17     O    0.22703   0.83568   0.15024   1.000
    O18     O    0.01060   0.58683   0.73984   1.000
    O19     O    0.58049   0.79724   0.18720   1.000
    O20     O    0.72594   0.18628   0.65256   1.000
    O21     O    0.41181   0.18528   0.16970   1.000
    O22     O    0.08091   0.21863   0.68827   1.000
    O23     O    0.51332   0.42985   0.24063   1.000
loop_
    _geom_bond_atom_site_label_1
    _geom_bond_atom_site_label_2
    _geom_bond_distance
    _geom_bond_site_symmetry_2
    _ccdc_geom_bond_type
    C7     O17       1.26529      .   S
    C7     O19       1.28530      .   S
    O21    C5        1.26871      .   S
    C5     O23       1.27626      .   S
    O11    C3        1.27634  1_655   S
    O15    C1        1.28498  1_655   S
    C3     O9        1.26959      .   S
    O13    C1        1.26513      .   S
    C4     O20       1.26512      .   S
    C4     O22       1.28499  1_655   S
    O16    C6        1.26959      .   S
    C6     O18       1.27633  1_655   S
    O14    C0        1.27625      .   S
    O10    C2        1.28530      .   S
    C0     O12       1.26872      .   S
    O8     C2        1.26530      .   S
