# CIF file generated by openbabel 2.4.90, see http://openbabel.sf.net
data_I
_chemical_name_common ''
_cell_length_a 5.945
_cell_length_b 7.474
_cell_length_c 15.5861
_cell_angle_alpha 89.787
_cell_angle_beta 86.3205
_cell_angle_gamma 89.557
_space_group_name_H-M_alt 'P 1'
_space_group_name_Hall 'P 1'
loop_
    _symmetry_equiv_pos_as_xyz
    x,y,z
loop_
    _atom_site_label
    _atom_site_type_symbol
    _atom_site_fract_x
    _atom_site_fract_y
    _atom_site_fract_z
    _atom_site_occupancy
    Zn0     Zn   0.25069   0.01549   0.24982   1.000
    Zn1     Zn   0.25001   0.39880   0.74992   1.000
    Zn2     Zn   0.74998   0.61682   0.25011   1.000
    C3      C    0.52593   0.66850   0.82829   1.000
    C4      C    0.08463   0.75323   0.35681   1.000
    C5      C    0.58423   0.25953   0.85832   1.000
    C6      C    0.02855   0.34537   0.32932   1.000
    C7      C    0.91532   0.26239   0.64322   1.000
    C8      C    0.47402   0.34712   0.17175   1.000
    C9      C    0.97139   0.67024   0.67071   1.000
    C10     C    0.41572   0.75608   0.14172   1.000
    O11     O    0.77291   0.17994   0.84980   1.000
    O12     O    0.09135   0.18281   0.33196   1.000
    O13     O    0.41946   0.21838   0.81283   1.000
    O14     O    0.98936   0.42879   0.26019   1.000
    O15     O    0.58814   0.83034   0.83033   1.000
    Zn16    Zn   0.74925   0.00013   0.75021   1.000
    O17     O    0.27401   0.82933   0.34748   1.000
    O18     O    0.48664   0.58577   0.75941   1.000
    O19     O    0.91904   0.79699   0.31176   1.000
    O20     O    0.90859   0.83280   0.66808   1.000
    O21     O    0.22703   0.83568   0.15024   1.000
    O22     O    0.01060   0.58683   0.73984   1.000
    O23     O    0.58049   0.79724   0.18720   1.000
    O24     O    0.72594   0.18628   0.65256   1.000
    O25     O    0.41181   0.18528   0.16970   1.000
    O26     O    0.08091   0.21863   0.68827   1.000
    O27     O    0.51332   0.42985   0.24063   1.000
loop_
    _geom_bond_atom_site_label_1
    _geom_bond_atom_site_label_2
    _geom_bond_distance
    _geom_bond_site_symmetry_2
    _ccdc_geom_bond_type
    C10    O21       1.26529      .   S
    C10    O23       1.28530      .   S
    O21    Zn0       2.06912  1_565   S
    O25    C8        1.26871      .   S
    O25    Zn0       1.98510      .   S
    C8     O27       1.27626      .   S
    O23    Zn2       1.97255      .   S
    O27    Zn2       2.00317      .   S
    Zn0    O12       1.98447      .   S
    Zn0    O17       2.06884  1_545   S
    Zn2    O14       2.00526      .   S
    Zn2    O19       1.97519      .   S
    O14    C6        1.27634  1_655   S
    O19    C4        1.28498  1_655   S
    C6     O12       1.26959      .   S
    O17    C4        1.26513      .   S
    C7     O24       1.26512      .   S
    C7     O26       1.28499  1_655   S
    O24    Zn16      2.06884      .   S
    O20    C9        1.26959      .   S
    O20    Zn16      1.98445  1_565   S
    C9     O22       1.27633  1_655   S
    O26    Zn1       1.97529      .   S
    O22    Zn1       2.00536      .   S
    Zn1    O18       2.00306      .   S
    Zn1    O13       1.97247      .   S
    Zn16   O15       1.98514  1_545   S
    Zn16   O11       2.06912      .   S
    O18    C3        1.27625      .   S
    O13    C5        1.28530      .   S
    C3     O15       1.26872      .   S
    O11    C5        1.26530      .   S
