# CIF file generated by openbabel 2.4.90, see http://openbabel.sf.net
data_I
_chemical_name_common ''
_cell_length_a 5.945
_cell_length_b 7.474
_cell_length_c 15.5861
_cell_angle_alpha 89.787
_cell_angle_beta 86.3205
_cell_angle_gamma 89.557
_space_group_name_H-M_alt 'P 1'
_space_group_name_Hall 'P 1'
loop_
    _symmetry_equiv_pos_as_xyz
    x,y,z
loop_
    _atom_site_label
    _atom_site_type_symbol
    _atom_site_fract_x
    _atom_site_fract_y
    _atom_site_fract_z
    _atom_site_occupancy
    Zr0     Zr   0.74925   0.00013   0.75021   1.000
    Zr1     Zr   0.25069   0.01549   0.24982   1.000
    Zr2     Zr   0.25001   0.39880   0.74992   1.000
    Zr3     Zr   0.74998   0.61682   0.25011   1.000
    N4      N    0.49997   0.50781   0.00002   1.000
    N5      N    0.99997   0.50781   0.50002   1.000
    C6      C    0.53357   0.69487   0.80601   1.000
    O7      O    0.45095   0.59357   0.78034   1.000
    O8      O    0.60113   0.80505   0.79814   1.000
    O9      O    0.52065   0.63026   0.87097   1.000
    C10     C    0.90739   0.22243   0.66135   1.000
    O11     O    0.93743   0.32048   0.60757   1.000
    O12     O    0.82249   0.15782   0.68137   1.000
    O13     O    0.03642   0.26557   0.69023   1.000
    C14     C    0.96353   0.69662   0.69288   1.000
    O15     O    0.04691   0.59472   0.71888   1.000
    O16     O    0.97732   0.63152   0.62830   1.000
    O17     O    0.89622   0.80655   0.70101   1.000
    C18     C    0.59220   0.21928   0.84032   1.000
    O19     O    0.56224   0.31836   0.89355   1.000
    O20     O    0.67664   0.15466   0.82016   1.000
    O21     O    0.46347   0.26394   0.81085   1.000
    C22     C    0.09256   0.79318   0.33868   1.000
    O23     O    0.96353   0.75004   0.30981   1.000
    O24     O    0.17746   0.85780   0.31867   1.000
    O25     O    0.06251   0.69514   0.39247   1.000
    C26     C    0.40775   0.79633   0.15972   1.000
    O27     O    0.32331   0.86096   0.17988   1.000
    O28     O    0.43770   0.69725   0.10648   1.000
    O29     O    0.53649   0.75168   0.18919   1.000
    C30     C    0.03642   0.31899   0.30716   1.000
    O31     O    0.02262   0.38409   0.37174   1.000
    O32     O    0.95305   0.42090   0.28115   1.000
    O33     O    0.10372   0.20907   0.29902   1.000
    C34     C    0.46638   0.32075   0.19403   1.000
    O35     O    0.47930   0.38535   0.12907   1.000
    O36     O    0.54901   0.42204   0.21970   1.000
    O37     O    0.39882   0.21057   0.20189   1.000
loop_
    _geom_bond_atom_site_label_1
    _geom_bond_atom_site_label_2
    _geom_bond_distance
    _geom_bond_site_symmetry_2
    _ccdc_geom_bond_type
    C6     O7        1.00386      .   S
    Zr2    O7        1.96868      .   S
    C6     O8        0.92336      .   S
    Zr0    O8        1.84028  1_545   S
    C6     O9        1.11844      .   S
    N4     O9        2.20337  1_554   S
    C10    O11       1.11797      .   S
    N5     O11       2.19522      .   S
    C10    O12       0.75346      .   S
    Zr0    O12       1.63357      .   S
    C10    O13       0.97168  1_655   S
    Zr2    O13       1.90987      .   S
    C14    O15       1.00387  1_655   S
    Zr2    O15       1.96937      .   S
    C14    O16       1.11760      .   S
    N5     O16       2.20180      .   S
    C14    O17       0.91668      .   S
    Zr0    O17       1.82964  1_545   S
    C18    O19       1.11899      .   S
    N4     O19       2.19679  1_554   S
    C18    O20       0.74908      .   S
    Zr0    O20       1.62788      .   S
    C18    O21       0.97369      .   S
    Zr2    O21       1.91204      .   S
    C22    O23       0.97164  1_455   S
    Zr3    O23       1.90978      .   S
    C22    O24       0.75347      .   S
    Zr1    O24       1.63358  1_545   S
    C22    O25       1.11797      .   S
    N5     O25       2.19522  1_655   S
    C26    O27       0.74909      .   S
    Zr1    O27       1.62789  1_545   S
    C26    O28       1.11899      .   S
    N4     O28       2.19679      .   S
    C26    O29       0.97372      .   S
    Zr3    O29       1.91211      .   S
    C30    O31       1.11760      .   S
    N5     O31       2.20180  1_655   S
    C30    O32       1.00385  1_455   S
    Zr3    O32       1.96930      .   S
    C30    O33       0.91667      .   S
    Zr1    O33       1.82963      .   S
    C34    O35       1.11844      .   S
    N4     O35       2.20337      .   S
    C34    O36       1.00389      .   S
    Zr3    O36       1.96875      .   S
    C34    O37       0.92336      .   S
    Zr1    O37       1.84027      .   S
