# CIF file generated by openbabel 2.4.90, see http://openbabel.sf.net
data_I
_chemical_name_common ''
_cell_length_a 18.445
_cell_length_b 18.422
_cell_length_c 18.413
_cell_angle_alpha 60.144
_cell_angle_beta 60.178
_cell_angle_gamma 60.191
_space_group_name_H-M_alt 'P 1'
_space_group_name_Hall 'P 1'
loop_
    _symmetry_equiv_pos_as_xyz
    x,y,z
loop_
    _atom_site_label
    _atom_site_type_symbol
    _atom_site_fract_x
    _atom_site_fract_y
    _atom_site_fract_z
    _atom_site_occupancy
    N0      N    0.00000   0.99999   0.50000   1.000
    N1      N    0.50000   0.49999   0.00000   1.000
    N2      N    0.50000   0.99999   1.00000   1.000
    N3      N    0.00000   0.49999   0.50000   1.000
    N4      N    0.00000   0.49999   0.99995   1.000
    N5      N    0.50000   0.99999   0.50000   1.000
    Zr6     Zr   0.24998   0.25001   0.25002   1.000
    Zr7     Zr   0.79361   0.79371   0.79380   1.000
    O8      O    0.70789   0.85446   0.85453   1.000
    O9      O    0.85438   0.70793   0.85452   1.000
    O10     O    0.85438   0.85446   0.70800   1.000
    Zr11    Zr   0.73912   0.73904   0.72654   1.000
    O12     O    0.82704   0.82709   0.63712   1.000
    O13     O    0.64354   0.82699   0.82078   1.000
    O14     O    0.82703   0.64339   0.82083   1.000
    O15     O    0.82702   0.66196   0.65570   1.000
    O16     O    0.66204   0.82701   0.65567   1.000
    O17     O    0.66203   0.66191   0.82077   1.000
    O18     O    0.33246   0.16747   0.16744   1.000
    O19     O    0.16753   0.33256   0.33258   1.000
    O20     O    0.16747   0.33253   0.16740   1.000
    O21     O    0.33252   0.16751   0.33262   1.000
    O22     O    0.16746   0.16742   0.33253   1.000
    O23     O    0.33252   0.33261   0.16751   1.000
loop_
    _geom_bond_atom_site_label_1
    _geom_bond_atom_site_label_2
    _geom_bond_distance
    _geom_bond_site_symmetry_2
    _ccdc_geom_bond_type
    Zr7    O8        1.65256      .   S
    N2     O8        3.97232      .   S
    Zr7    O9        1.65217      .   S
    N4     O9        3.97121  1_455   S
    Zr7    O10       1.65235      .   S
    N0     O10       3.97174  1_455   S
    Zr11   O12       2.29616      .   S
    N0     O12       4.55882  1_455   S
    Zr11   O13       2.37925      .   S
    N2     O13       4.63130      .   S
    Zr11   O14       2.37943      .   S
    N4     O14       4.63109  1_455   S
    Zr11   O15       1.94884      .   S
    N3     O15       4.15404  1_455   S
    Zr11   O16       1.94937      .   S
    N5     O16       4.15451      .   S
    Zr11   O17       2.03752      .   S
    N1     O17       4.23938  1_554   S
    N2     O18       4.36908  1_566   S
    Zr6    O18       2.15412      .   S
    N3     O19       4.36835      .   S
    Zr6    O19       2.15389      .   S
    N4     O20       4.36957  1_556   S
    Zr6    O20       2.15441      .   S
    Zr6    O21       2.15447      .   S
    N5     O21       4.36894  1_565   S
    Zr6    O22       2.15436      .   S
    N0     O22       4.36935  1_565   S
    Zr6    O23       2.15458      .   S
    N1     O23       4.36905      .   S
