# CIF file generated by openbabel 2.4.90, see http://openbabel.sf.net
data_I
_chemical_name_common ''
_cell_length_a 18.445
_cell_length_b 18.422
_cell_length_c 18.413
_cell_angle_alpha 60.144
_cell_angle_beta 60.178
_cell_angle_gamma 60.191
_space_group_name_H-M_alt 'P 1'
_space_group_name_Hall 'P 1'
loop_
    _symmetry_equiv_pos_as_xyz
    x,y,z
loop_
    _atom_site_label
    _atom_site_type_symbol
    _atom_site_fract_x
    _atom_site_fract_y
    _atom_site_fract_z
    _atom_site_occupancy
    N0      N    0.00000   0.99999   0.50000   1.000
    N1      N    0.50000   0.49999   0.00000   1.000
    N2      N    0.50000   0.99999   1.00000   1.000
    N3      N    0.00000   0.49999   0.50000   1.000
    N4      N    0.00000   0.49999   0.99995   1.000
    N5      N    0.50000   0.99999   0.50000   1.000
    Zr6     Zr   0.24998   0.25001   0.25002   1.000
    O7      O    0.16754   0.35114   0.31398   1.000
    O8      O    0.16752   0.35113   0.16743   1.000
    O9      O    0.31400   0.35118   0.16747   1.000
    O10     O    0.35105   0.31404   0.16754   1.000
    O11     O    0.35102   0.16754   0.16749   1.000
    O12     O    0.35105   0.16754   0.31403   1.000
    O13     O    0.31391   0.16740   0.16738   1.000
    O14     O    0.16742   0.31392   0.16737   1.000
    O15     O    0.16742   0.16740   0.31391   1.000
    O16     O    0.16751   0.31397   0.35118   1.000
    O17     O    0.31398   0.16747   0.35121   1.000
    O18     O    0.16751   0.16743   0.35116   1.000
    Zr19    Zr   0.79361   0.79371   0.79380   1.000
    O20     O    0.70789   0.85446   0.85453   1.000
    O21     O    0.85438   0.70793   0.85452   1.000
    O22     O    0.85438   0.85446   0.70800   1.000
    Zr23    Zr   0.73912   0.73904   0.72654   1.000
    O24     O    0.82704   0.68055   0.63710   1.000
    O25     O    0.68057   0.82705   0.63707   1.000
    O26     O    0.82704   0.82709   0.63712   1.000
    O27     O    0.64354   0.82699   0.82078   1.000
    O28     O    0.64350   0.82698   0.67426   1.000
    O29     O    0.64350   0.68048   0.82073   1.000
    O30     O    0.68055   0.64334   0.82082   1.000
    O31     O    0.82701   0.64338   0.67430   1.000
    O32     O    0.82703   0.64339   0.82083   1.000
loop_
    _geom_bond_atom_site_label_1
    _geom_bond_atom_site_label_2
    _geom_bond_distance
    _geom_bond_site_symmetry_2
    _ccdc_geom_bond_type
    Zr6    O7        2.18105      .   S
    N3     O7        4.38178      .   S
    Zr6    O8        2.18153      .   S
    N4     O8        4.38296  1_556   S
    Zr6    O9        2.18178      .   S
    N1     O9        4.38255      .   S
    Zr6    O10       2.18162      .   S
    N1     O10       4.38243      .   S
    Zr6    O11       2.18115      .   S
    N2     O11       4.38236  1_566   S
    Zr6    O12       2.18154      .   S
    N5     O12       4.38227  1_565   S
    Zr6    O13       2.18147      .   S
    N2     O13       4.38274  1_566   S
    Zr6    O14       2.18169      .   S
    N4     O14       4.38314  1_556   S
    Zr6    O15       2.18164      .   S
    N0     O15       4.38293  1_565   S
    Zr6    O16       2.18107      .   S
    N3     O16       4.38185      .   S
    Zr6    O17       2.18166      .   S
    N5     O17       4.38249  1_565   S
    Zr6    O18       2.18152      .   S
    N0     O18       4.38274  1_565   S
    Zr19   O20       1.65256      .   S
    N2     O20       3.97232      .   S
    Zr19   O21       1.65217      .   S
    N4     O21       3.97121  1_455   S
    Zr19   O22       1.65235      .   S
    N0     O22       3.97174  1_455   S
    Zr23   O24       1.96883      .   S
    N3     O24       4.17298  1_455   S
    Zr23   O25       1.96934      .   S
    N5     O25       4.17351      .   S
    Zr23   O26       2.29616      .   S
    N0     O26       4.55882  1_455   S
    Zr23   O27       2.37925      .   S
    N2     O27       4.63130      .   S
    Zr23   O28       1.98924      .   S
    N5     O28       4.16378      .   S
    Zr23   O29       2.06606      .   S
    N1     O29       4.25318  1_554   S
    Zr23   O30       2.06630      .   S
    N1     O30       4.25328  1_554   S
    Zr23   O31       1.98879      .   S
    N3     O31       4.16341  1_455   S
    Zr23   O32       2.37943      .   S
    N4     O32       4.63109  1_455   S
