# CIF file generated by openbabel 2.4.90, see http://openbabel.sf.net
data_I
_chemical_name_common ''
_cell_length_a 14.559
_cell_length_b 15.905
_cell_length_c 18.506
_cell_angle_alpha 89.983
_cell_angle_beta 86.855
_cell_angle_gamma 90.096
_space_group_name_H-M_alt 'P 1'
_space_group_name_Hall 'P 1'
loop_
    _symmetry_equiv_pos_as_xyz
    x,y,z
loop_
    _atom_site_label
    _atom_site_type_symbol
    _atom_site_fract_x
    _atom_site_fract_y
    _atom_site_fract_z
    _atom_site_occupancy
    H0      H    0.97361   0.21811   0.48883   1.000
    H1      H    0.97362   0.21811   0.00000   1.000
    H2      H    0.10142   0.02153   0.85918   1.000
    H3      H    0.10141   0.02152   0.35918   1.000
    H4      H    0.86325   0.15067   0.78636   1.000
    H5      H    0.86324   0.15066   0.28636   1.000
    H6      H    0.07452   0.34918   0.84198   1.000
    H7      H    0.07451   0.34918   0.34198   1.000
    H8      H    0.00000   0.26397   0.64054   1.000
    H9      H    0.00000   0.26397   0.14053   1.000
    H10     H    0.19481   0.22672   0.78623   1.000
    H11     H    0.19480   0.22671   0.28623   1.000
    H12     H    0.90650   0.38902   0.80331   1.000
    H13     H    0.90649   0.38902   0.30329   1.000
    H14     H    0.88033   0.36837   0.71388   1.000
    H15     H    0.88032   0.36836   0.21386   1.000
    H16     H    0.99897   0.47683   0.66951   1.000
    H17     H    0.99896   0.47682   0.16949   1.000
    H18     H    0.90334   0.51560   0.72289   1.000
    H19     H    0.90334   0.51560   0.22287   1.000
    H20     H    0.34562   0.86338   0.62557   1.000
    H21     H    0.34562   0.86338   0.12555   1.000
    H22     H    0.38578   0.85683   0.76341   1.000
    H23     H    0.38578   0.85682   0.26339   1.000
    H24     H    0.36517   0.94876   0.81627   1.000
    H25     H    0.36517   0.94875   0.31625   1.000
    H26     H    0.27698   0.07028   0.76206   1.000
    H27     H    0.27699   0.07028   0.26205   1.000
    H28     H    0.23178   0.97438   0.55462   1.000
    H29     H    0.23178   0.97439   0.05460   1.000
    H30     H    0.53383   0.91783   0.78468   1.000
    H31     H    0.53383   0.91783   0.28467   1.000
    H32     H    0.51451   0.93013   0.69280   1.000
    H33     H    0.51451   0.93013   0.19279   1.000
    H34     H    0.52593   0.71798   0.76091   1.000
    H35     H    0.52593   0.71797   0.26089   1.000
    H36     H    0.39790   0.52134   0.89098   1.000
    H37     H    0.39791   0.52133   0.39096   1.000
    H38     H    0.63633   0.65108   0.96343   1.000
    H39     H    0.63634   0.65107   0.46341   1.000
    H40     H    0.42598   0.84858   0.90716   1.000
    H41     H    0.42598   0.84858   0.40715   1.000
    H42     H    0.51430   0.76472   0.60911   1.000
    H43     H    0.51431   0.76472   0.10910   1.000
    H44     H    0.30536   0.72625   0.96339   1.000
    H45     H    0.30536   0.72625   0.46338   1.000
    H46     H    0.59307   0.88976   0.94554   1.000
    H47     H    0.59307   0.88976   0.44554   1.000
    H48     H    0.62044   0.86866   0.53462   1.000
    H49     H    0.62044   0.86866   0.03461   1.000
    H50     H    0.50248   0.97655   0.58037   1.000
    H51     H    0.50248   0.97655   0.08036   1.000
    H52     H    0.59712   0.01602   0.52612   1.000
    H53     H    0.59712   0.01602   0.02611   1.000
    H54     H    0.15518   0.36237   0.62331   1.000
    H55     H    0.15517   0.36238   0.12330   1.000
    H56     H    0.11356   0.35685   0.98597   1.000
    H57     H    0.11356   0.35685   0.48596   1.000
    H58     H    0.13430   0.44896   0.93324   1.000
    H59     H    0.13430   0.44896   0.43324   1.000
    H60     H    0.22190   0.57104   0.98798   1.000
    H61     H    0.22189   0.57104   0.48798   1.000
    H62     H    0.26860   0.47362   0.69465   1.000
    H63     H    0.26860   0.47362   0.19464   1.000
    H64     H    0.96570   0.41810   0.96501   1.000
    H65     H    0.96570   0.41810   0.46501   1.000
    H66     H    0.98530   0.42976   0.55691   1.000
    H67     H    0.98530   0.42976   0.05690   1.000
    H68     H    0.02635   0.78189   0.01116   1.000
    H69     H    0.02635   0.78189   0.51115   1.000
    H70     H    0.89856   0.97849   0.64080   1.000
    H71     H    0.89856   0.97848   0.14079   1.000
    H72     H    0.13673   0.84934   0.71362   1.000
    H73     H    0.13672   0.84934   0.21361   1.000
    H74     H    0.92547   0.65083   0.65800   1.000
    H75     H    0.92546   0.65083   0.15799   1.000
    H76     H    0.01427   0.73605   0.85946   1.000
    H77     H    0.01427   0.73604   0.35945   1.000
    H78     H    0.80517   0.77329   0.71375   1.000
    H79     H    0.80517   0.77330   0.21374   1.000
    H80     H    0.09349   0.61100   0.69669   1.000
    H81     H    0.09348   0.61099   0.19668   1.000
    H82     H    0.11965   0.63165   0.78612   1.000
    H83     H    0.11964   0.63165   0.28611   1.000
    H84     H    0.00101   0.52319   0.83049   1.000
    H85     H    0.00101   0.52319   0.33048   1.000
    H86     H    0.09664   0.48442   0.77711   1.000
    H87     H    0.09663   0.48442   0.27710   1.000
    H88     H    0.65437   0.13663   0.87443   1.000
    H89     H    0.65436   0.13662   0.37441   1.000
    H90     H    0.61418   0.14318   0.73660   1.000
    H91     H    0.61418   0.14318   0.23658   1.000
    C92     C    0.47273   0.77094   0.06255   1.000
    C93     C    0.36711   0.75212   0.98473   1.000
    C94     C    0.36711   0.75211   0.48472   1.000
    C95     C    0.56450   0.88986   0.00170   1.000
    H96     H    0.63478   0.05126   0.68373   1.000
    H97     H    0.63479   0.05125   0.18372   1.000
    H98     H    0.72296   0.92971   0.73794   1.000
    H99     H    0.72297   0.92971   0.23792   1.000
    H100    H    0.76820   0.02562   0.94538   1.000
    H101    H    0.76819   0.02562   0.44537   1.000
    H102    H    0.46612   0.08218   0.71532   1.000
    H103    H    0.46613   0.08217   0.21530   1.000
    H104    H    0.48545   0.06988   0.80720   1.000
    H105    H    0.48545   0.06987   0.30719   1.000
    H106    H    0.47404   0.28203   0.73909   1.000
    H107    H    0.47404   0.28203   0.23908   1.000
    H108    H    0.60206   0.47866   0.60902   1.000
    H109    H    0.60206   0.47866   0.10901   1.000
    H110    H    0.36363   0.34892   0.53657   1.000
    H111    H    0.36363   0.34892   0.03656   1.000
    H112    H    0.57400   0.15142   0.59284   1.000
    H113    H    0.57399   0.15142   0.09283   1.000
    H114    H    0.48566   0.23529   0.89089   1.000
    H115    H    0.48566   0.23528   0.39088   1.000
    H116    H    0.69461   0.27376   0.53661   1.000
    H117    H    0.69461   0.27376   0.03660   1.000
    H118    H    0.40691   0.11024   0.55446   1.000
    H119    H    0.40691   0.11024   0.05445   1.000
    H120    H    0.37954   0.13134   0.96538   1.000
    H121    H    0.37954   0.13134   0.46537   1.000
    H122    H    0.49750   0.02345   0.91963   1.000
    H123    H    0.49750   0.02345   0.41962   1.000
    C124    C    0.41177   0.30743   0.63897   1.000
    H125    H    0.40286   0.98398   0.97388   1.000
    H126    H    0.40286   0.98398   0.47387   1.000
    H127    H    0.84479   0.63762   0.87668   1.000
    H128    H    0.84479   0.63762   0.37667   1.000
    H129    H    0.88639   0.64316   0.51402   1.000
    H130    H    0.88640   0.64315   0.01401   1.000
    H131    H    0.86566   0.55105   0.56675   1.000
    H132    H    0.86566   0.55105   0.06674   1.000
    H133    H    0.77806   0.42897   0.51201   1.000
    H134    H    0.77806   0.42897   0.01201   1.000
    H135    H    0.73137   0.52637   0.80534   1.000
    H136    H    0.73137   0.52637   0.30533   1.000
    H137    H    0.03426   0.58191   0.53498   1.000
    H138    H    0.03426   0.58191   0.03498   1.000
    H139    H    0.01466   0.57025   0.94309   1.000
    H140    H    0.01466   0.57024   0.44308   1.000
    C141    C    0.97703   0.18027   0.93988   1.000
    C142    C    0.97701   0.18026   0.43988   1.000
    C143    C    0.04672   0.12015   0.92918   1.000
    C144    C    0.04672   0.12014   0.42918   1.000
    C145    C    0.91138   0.19243   0.88873   1.000
    C146    C    0.91137   0.19242   0.38873   1.000
    C147    C    0.04856   0.06940   0.86748   1.000
    C148    C    0.04856   0.06939   0.36748   1.000
    C149    C    0.91423   0.14248   0.82662   1.000
    C150    C    0.91423   0.14247   0.32662   1.000
    C151    C    0.98117   0.07988   0.81644   1.000
    C152    C    0.98116   0.07987   0.31644   1.000
    C153    C    0.07561   0.31425   0.79188   1.000
    C154    C    0.07560   0.31424   0.29187   1.000
    C155    C    0.02734   0.27054   0.68702   1.000
    C156    C    0.02734   0.27054   0.18701   1.000
    C157    C    0.13305   0.25235   0.76485   1.000
    C158    C    0.13304   0.25234   0.26485   1.000
    C159    C    0.93580   0.38954   0.74736   1.000
    C160    C    0.93579   0.38953   0.24734   1.000
    C161    C    0.96698   0.47859   0.72486   1.000
    C162    C    0.96698   0.47859   0.22485   1.000
    C163    C    0.31625   0.92333   0.64178   1.000
    C164    C    0.31625   0.92333   0.14176   1.000
    C165    C    0.39108   0.92577   0.76294   1.000
    C166    C    0.39108   0.92577   0.26292   1.000
    C167    C    0.27836   0.02920   0.71547   1.000
    C168    C    0.27836   0.02919   0.21546   1.000
    C169    C    0.25856   0.97678   0.60811   1.000
    C170    C    0.25856   0.97678   0.10810   1.000
    C171    C    0.49158   0.95261   0.74716   1.000
    C172    C    0.49158   0.95260   0.24715   1.000
    C173    C    0.52252   0.68020   0.80992   1.000
    C174    C    0.52252   0.68020   0.30991   1.000
    C175    C    0.45269   0.61997   0.82076   1.000
    C176    C    0.45270   0.61996   0.32074   1.000
    C177    C    0.58819   0.69257   0.86103   1.000
    C178    C    0.58820   0.69256   0.36102   1.000
    C179    C    0.45083   0.56930   0.88254   1.000
    C180    C    0.45084   0.56929   0.38253   1.000
    C181    C    0.58532   0.64272   0.92321   1.000
    C182    C    0.58533   0.64271   0.42319   1.000
    C183    C    0.51836   0.57997   0.93350   1.000
    C184    C    0.51837   0.57996   0.43349   1.000
    C185    C    0.42470   0.81396   0.95745   1.000
    C186    C    0.42470   0.81396   0.45744   1.000
    C187    C    0.47273   0.77094   0.56256   1.000
    C188    C    0.56450   0.88986   0.50169   1.000
    C189    C    0.53351   0.97868   0.52472   1.000
    C190    C    0.53351   0.97868   0.02471   1.000
    C191    C    0.18409   0.42270   0.60740   1.000
    C192    C    0.18409   0.42270   0.10739   1.000
    C193    C    0.10851   0.42579   0.98658   1.000
    C194    C    0.10851   0.42579   0.48657   1.000
    C195    C    0.22103   0.52949   0.53427   1.000
    C196    C    0.22103   0.52950   0.03426   1.000
    C197    C    0.24161   0.47631   0.64124   1.000
    C198    C    0.24161   0.47631   0.14123   1.000
    C199    C    0.00816   0.45258   0.50262   1.000
    C200    C    0.00817   0.45258   0.00261   1.000
    C201    C    0.02295   0.81974   0.56010   1.000
    C202    C    0.02295   0.81973   0.06010   1.000
    C203    C    0.95325   0.87986   0.57080   1.000
    C204    C    0.95325   0.87985   0.07080   1.000
    C205    C    0.08860   0.80758   0.61125   1.000
    C206    C    0.08859   0.80757   0.11125   1.000
    C207    C    0.95142   0.93061   0.63250   1.000
    C208    C    0.95141   0.93061   0.13249   1.000
    C209    C    0.08574   0.85753   0.67336   1.000
    C210    C    0.08574   0.85752   0.17336   1.000
    C211    C    0.01881   0.92014   0.68354   1.000
    C212    C    0.01881   0.92013   0.18353   1.000
    C213    C    0.92437   0.68577   0.70811   1.000
    C214    C    0.92437   0.68577   0.20810   1.000
    C215    C    0.97263   0.72947   0.81297   1.000
    C216    C    0.97263   0.72947   0.31296   1.000
    C217    C    0.86693   0.74767   0.73513   1.000
    C218    C    0.86692   0.74767   0.23512   1.000
    C219    C    0.06418   0.61048   0.75264   1.000
    C220    C    0.06418   0.61048   0.25263   1.000
    C221    C    0.03300   0.52142   0.77513   1.000
    C222    C    0.03299   0.52142   0.27512   1.000
    C223    C    0.68372   0.07668   0.85822   1.000
    C224    C    0.68371   0.07667   0.35821   1.000
    C225    C    0.60888   0.07424   0.73706   1.000
    C226    C    0.60888   0.07424   0.23705   1.000
    C227    C    0.72159   0.97080   0.78453   1.000
    C228    C    0.72159   0.97080   0.28451   1.000
    C229    C    0.74141   0.02322   0.89188   1.000
    C230    C    0.74140   0.02322   0.39187   1.000
    C231    C    0.50838   0.04740   0.75284   1.000
    C232    C    0.50838   0.04740   0.25282   1.000
    C233    C    0.47745   0.31980   0.69007   1.000
    C234    C    0.47745   0.31980   0.19007   1.000
    C235    C    0.54727   0.38004   0.67924   1.000
    C236    C    0.54727   0.38004   0.17923   1.000
    C237    C    0.41177   0.30743   0.13896   1.000
    C238    C    0.54913   0.43071   0.61746   1.000
    C239    C    0.54913   0.43071   0.11745   1.000
    C240    C    0.41464   0.35729   0.57679   1.000
    C241    C    0.41464   0.35729   0.07678   1.000
    C242    C    0.48160   0.42004   0.56650   1.000
    C243    C    0.48160   0.42004   0.06649   1.000
    C244    C    0.57527   0.18604   0.54255   1.000
    C245    C    0.57527   0.18604   0.04254   1.000
    C246    C    0.52724   0.22906   0.93744   1.000
    C247    C    0.52724   0.22906   0.43743   1.000
    C248    C    0.63286   0.24789   0.51527   1.000
    C249    C    0.63286   0.24789   0.01526   1.000
    C250    C    0.43548   0.11014   0.49830   1.000
    C251    C    0.43548   0.11014   0.00000   1.000
    C252    C    0.46646   0.02132   0.97528   1.000
    C253    C    0.46646   0.02132   0.47527   1.000
    C254    C    0.81587   0.57730   0.89259   1.000
    C255    C    0.81588   0.57730   0.39258   1.000
    C256    C    0.89145   0.57422   0.51341   1.000
    C257    C    0.89145   0.57422   0.01341   1.000
    C258    C    0.77894   0.47051   0.96572   1.000
    C259    C    0.77893   0.47051   0.46571   1.000
    C260    C    0.75836   0.52369   0.85875   1.000
    C261    C    0.75836   0.52369   0.35874   1.000
    C262    C    0.99179   0.54743   0.99738   1.000
    C263    C    0.99179   0.54743   0.49737   1.000
    N264    N    0.00920   0.32597   0.74205   1.000
    N265    N    0.00919   0.32597   0.24204   1.000
    N266    N    0.10251   0.22534   0.69920   1.000
    N267    N    0.10251   0.22533   0.19919   1.000
    N268    N    0.23565   0.04291   0.65455   1.000
    N269    N    0.23565   0.04291   0.15453   1.000
    N270    N    0.32819   0.95720   0.70987   1.000
    N271    N    0.32819   0.95720   0.20986   1.000
    N272    N    0.49107   0.82609   0.00728   1.000
    N273    N    0.49107   0.82609   0.50727   1.000
    N274    N    0.39749   0.72553   0.55054   1.000
    N275    N    0.39749   0.72553   0.05053   1.000
    N276    N    0.26393   0.54301   0.59515   1.000
    N277    N    0.26393   0.54301   0.09514   1.000
    N278    N    0.17167   0.45706   0.53956   1.000
    N279    N    0.17167   0.45707   0.03955   1.000
    N280    N    0.99078   0.67405   0.75794   1.000
    N281    N    0.99078   0.67404   0.25793   1.000
    N282    N    0.89746   0.77467   0.80079   1.000
    N283    N    0.89745   0.77467   0.30078   1.000
    N284    N    0.76431   0.95709   0.84545   1.000
    N285    N    0.76431   0.95709   0.34544   1.000
    N286    N    0.67177   0.04280   0.79012   1.000
    N287    N    0.67177   0.04280   0.29011   1.000
    N288    N    0.50890   0.17392   0.49272   1.000
    N289    N    0.50890   0.17392   0.00000   1.000
    N290    N    0.60248   0.27447   0.94946   1.000
    N291    N    0.60248   0.27447   0.44945   1.000
    N292    N    0.73603   0.45699   0.90484   1.000
    N293    N    0.73603   0.45699   0.40483   1.000
    N294    N    0.82829   0.54294   0.96043   1.000
    N295    N    0.82829   0.54294   0.46042   1.000
loop_
    _geom_bond_atom_site_label_1
    _geom_bond_atom_site_label_2
    _geom_bond_distance
    _geom_bond_site_symmetry_2
    _ccdc_geom_bond_type
    C251   N289      1.47247      .   S
    C251   H119      1.06875      .   S
    C251   H120      1.11609  1_554   S
    C251   C252      1.54536  1_554   S
    N289   C245      1.29359      .   S
    N289   C246      1.46476  1_554   S
    H1     C141      1.26371  1_554   S
    C95    N272      1.47195      .   S
    C95    C190      1.53680      .   S
    C95    H49       1.09693      .   S
    C95    H46       1.09797  1_554   S
    C200   H67       1.10219  1_455   S
    C200   H64       1.10150  1_454   S
    C200   C193      1.53574  1_554   S
    C200   C262      1.53156  1_454   S
    N272   C92       1.36216      .   S
    N272   C185      1.38500  1_554   S
    H68    C202      1.08644      .   S
    H134   C258      1.08111  1_554   S
    C257   H130      1.09902      .   S
    C257   H132      1.09986      .   S
    C257   N294      1.46691  1_554   S
    C257   C262      1.53573  1_554   S
    C249   H117      1.08220      .   S
    C249   C245      1.36969      .   S
    C249   N290      1.38444  1_554   S
    C190   H53       1.10077  1_565   S
    C190   H51       1.10217      .   S
    C190   C252      1.53279  1_564   S
    C196   N279      1.35739      .   S
    C196   N277      1.33519      .   S
    C196   H60       1.08110  1_554   S
    H138   C262      1.10151  1_454   S
    H111   C241      1.08795      .   S
    N279   C192      1.39009      .   S
    N279   C193      1.46692  1_554   S
    C245   H113      1.08056      .   S
    N275   C92       1.33990      .   S
    N275   C93       1.38443  1_554   S
    H29    C170      1.08447      .   S
    C202   C204      1.40168  1_455   S
    C202   C206      1.39520      .   S
    C92    H43       1.08421      .   S
    C243   C241      1.39960      .   S
    C243   C239      1.40931      .   S
    C204   C208      1.39754      .   S
    C241   C237      1.39587      .   S
    N277   C198      1.38793      .   S
    C192   H55       1.08136      .   S
    C192   C198      1.36963      .   S
    C170   C164      1.36957      .   S
    C170   N269      1.38789  1_565   S
    H109   C239      1.08843      .   S
    C206   C210      1.39618      .   S
    C239   C236      1.39771      .   S
    H21    C164      1.08138      .   S
    C208   H71       1.08839      .   S
    C208   C212      1.40888  1_655   S
    C237   C234      1.39505      .   S
    H9     C156      0.97306      .   S
    C198   H63       1.08439      .   S
    C164   N271      1.39016      .   S
    N269   C168      1.33518      .   S
    H75    C214      1.08050      .   S
    H17    C162      1.10221      .   S
    C210   C212      1.39996      .   S
    C210   H73       1.08805      .   S
    C236   C234      1.40207      .   S
    H97    C226      1.09984      .   S
    C156   N267      1.33986      .   S
    C156   N265      1.36228      .   S
    C234   H107      1.08668      .   S
    H33    C172      1.10236      .   S
    H81    C220      1.09799      .   S
    N267   C158      1.38473      .   S
    C214   C218      1.36967      .   S
    C214   N281      1.38506      .   S
    N271   C168      1.35745  1_565   S
    N271   C166      1.46720      .   S
    H79    C218      1.08226      .   S
    H15    C160      1.09710      .   S
    H103   C232      1.10195      .   S
    C168   H27       1.08138      .   S
    H19    C162      1.10076      .   S
    C162   C160      1.53708      .   S
    C162   C222      1.53280  1_655   S
    C218   N283      1.38471      .   S
    H91    C226      1.09907      .   S
    C226   C232      1.53593      .   S
    C226   N287      1.46722      .   S
    H99    C228      1.08135      .   S
    N265   C160      1.47168  1_455   S
    N265   C154      1.38506      .   S
    C172   C232      1.53164  1_565   S
    C172   C166      1.53594      .   S
    C172   H31       1.10196      .   S
    C160   H13       1.09799      .   S
    C220   N281      1.47168  1_455   S
    C220   C222      1.53708      .   S
    C220   H83       1.09709      .   S
    C232   H105      1.10236      .   S
    N281   C216      1.36227      .   S
    H35    C174      1.08668      .   S
    C166   H23       1.09907      .   S
    C166   H25       1.09986      .   S
    C158   H11       1.08224      .   S
    C158   C154      1.36967      .   S
    C222   H87       1.10076      .   S
    C222   H85       1.10221      .   S
    C228   N287      1.35747  1_565   S
    C228   N285      1.33520      .   S
    H5     C150      1.08804      .   S
    N287   C224      1.39016      .   S
    C154   H7        1.08051      .   S
    N283   C216      1.33985      .   S
    H136   C261      1.08438      .   S
    C174   C176      1.40207      .   S
    C174   C178      1.39505      .   S
    C216   H77       1.08422  1_655   S
    C152   C150      1.39995      .   S
    C152   C148      1.40888  1_655   S
    C176   C180      1.39773      .   S
    C150   C146      1.39618      .   S
    N285   C230      1.38787  1_565   S
    C224   H89       1.08137      .   S
    C224   C230      1.36957      .   S
    C261   C255      1.36964      .   S
    C261   N293      1.38794      .   S
    H3     C148      1.08839      .   S
    C178   C182      1.39588      .   S
    C148   C144      1.39755      .   S
    H128   C255      1.08137      .   S
    C180   H37       1.08843      .   S
    C180   C184      1.40931      .   S
    C146   C142      1.39521      .   S
    H115   C247      1.08420      .   S
    C230   H101      1.08447      .   S
    C255   N295      1.39008      .   S
    N293   C259      1.33518      .   S
    H41    C186      1.08055      .   S
    H123   C253      1.10219      .   S
    C182   C184      1.39960      .   S
    C182   H39       1.08794      .   S
    C144   C142      1.40167  1_455   S
    H59    C194      1.09986      .   S
    C247   N291      1.33990      .   S
    C247   N288      1.36239      .   S
    C142   H0        1.08669      .   S
    H140   C263      1.10220  1_455   S
    H47    C188      1.09797      .   S
    N291   C248      1.38471      .   S
    C186   C94       1.36971      .   S
    C186   N273      1.38501      .   S
    N295   C259      1.35739      .   S
    N295   C256      1.46713      .   S
    H45    C94       1.08219      .   S
    H65    C199      1.10171  1_655   S
    H121   C250      1.09712      .   S
    C259   H133      1.08133      .   S
    H126   C253      1.10077  1_565   S
    C253   C250      1.53688      .   S
    C253   C189      1.53299  1_545   S
    C94    N274      1.38470      .   S
    H57    C194      1.09902      .   S
    C194   C199      1.53578      .   S
    C194   N278      1.46714      .   S
    H61    C195      1.08134      .   S
    N288   C250      1.47194      .   S
    N288   C244      1.38500      .   S
    C263   C199      1.53157  1_655   S
    C263   C256      1.53578      .   S
    C263   H137      1.10170  1_655   S
    C250   H118      1.09798      .   S
    C188   N273      1.47194      .   S
    C188   C189      1.53688      .   S
    C188   H48       1.09711      .   S
    C199   H66       1.10220  1_455   S
    N273   C187      1.36238      .   S
    H69    C201      1.08667      .   S
    C256   H129      1.09903      .   S
    C256   H131      1.09988      .   S
    C248   H116      1.08219      .   S
    C248   C244      1.36970      .   S
    C189   H52       1.10077  1_565   S
    C189   H50       1.10218      .   S
    C195   N278      1.35739      .   S
    C195   N276      1.33518      .   S
    H110   C240      1.08794      .   S
    N278   C191      1.39009      .   S
    C244   H112      1.08055      .   S
    N274   C187      1.33990      .   S
    H28    C169      1.08445      .   S
    C201   C203      1.40168  1_455   S
    C201   C205      1.39522      .   S
    C187   H42       1.08421      .   S
    C242   C240      1.39960      .   S
    C242   C238      1.40932      .   S
    C203   C207      1.39753      .   S
    C240   C124      1.39588      .   S
    N276   C197      1.38794      .   S
    C191   H54       1.08138      .   S
    C191   C197      1.36963      .   S
    C169   C163      1.36957      .   S
    C169   N268      1.38789  1_565   S
    H108   C238      1.08843      .   S
    C205   C209      1.39618      .   S
    C238   C235      1.39772      .   S
    H20    C163      1.08136      .   S
    C207   H70       1.08840      .   S
    C207   C211      1.40888  1_655   S
    C124   C233      1.39506      .   S
    H8     C155      0.97308      .   S
    C197   H62       1.08439      .   S
    C163   N270      1.39017      .   S
    N268   C167      1.33519      .   S
    H74    C213      1.08050      .   S
    H16    C161      1.10221      .   S
    C209   C211      1.39996      .   S
    C209   H72       1.08804      .   S
    C235   C233      1.40206      .   S
    H96    C225      1.09986      .   S
    C155   N266      1.33984      .   S
    C155   N264      1.36227      .   S
    C233   H106      1.08668      .   S
    H32    C171      1.10234      .   S
    H80    C219      1.09800      .   S
    N266   C157      1.38471      .   S
    C213   C217      1.36968      .   S
    C213   N280      1.38507      .   S
    N270   C167      1.35745  1_565   S
    N270   C165      1.46721      .   S
    H78    C217      1.08226      .   S
    H14    C159      1.09711      .   S
    H102   C231      1.10196      .   S
    C167   H26       1.08137      .   S
    H18    C161      1.10076      .   S
    C161   C159      1.53708      .   S
    C161   C221      1.53280  1_655   S
    C217   N282      1.38472      .   S
    H90    C225      1.09906      .   S
    C225   C231      1.53594      .   S
    C225   N286      1.46721      .   S
    H98    C227      1.08136      .   S
    N264   C159      1.47168  1_455   S
    N264   C153      1.38507      .   S
    C171   C231      1.53164  1_565   S
    C171   C165      1.53593      .   S
    C171   H30       1.10197      .   S
    C159   H12       1.09799      .   S
    C219   N280      1.47168  1_455   S
    C219   C221      1.53708      .   S
    C219   H82       1.09710      .   S
    C231   H104      1.10236      .   S
    N280   C215      1.36228      .   S
    H34    C173      1.08668      .   S
    C165   H22       1.09906      .   S
    C165   H24       1.09985      .   S
    C157   H10       1.08226      .   S
    C157   C153      1.36967      .   S
    C221   H86       1.10078      .   S
    C221   H84       1.10221      .   S
    C227   N286      1.35746  1_565   S
    C227   N284      1.33521      .   S
    H4     C149      1.08805      .   S
    N286   C223      1.39017      .   S
    C153   H6        1.08051      .   S
    N282   C215      1.33985      .   S
    H135   C260      1.08438      .   S
    C173   C175      1.40208      .   S
    C173   C177      1.39506      .   S
    C215   H76       1.08422  1_655   S
    C151   C149      1.39995      .   S
    C151   C147      1.40888  1_655   S
    C175   C179      1.39773      .   S
    C149   C145      1.39618      .   S
    N284   C229      1.38788  1_565   S
    C223   H88       1.08137      .   S
    C223   C229      1.36958      .   S
    C260   C254      1.36963      .   S
    C260   N292      1.38794      .   S
    H2     C147      1.08839      .   S
    C177   C181      1.39590      .   S
    C147   C143      1.39754      .   S
    H127   C254      1.08138      .   S
    C179   H36       1.08842      .   S
    C179   C183      1.40932      .   S
    C145   C141      1.39521      .   S
    H114   C246      1.08421      .   S
    C229   H100      1.08445      .   S
    C254   N294      1.39010      .   S
    N292   C258      1.33517      .   S
    H40    C185      1.08054      .   S
    H122   C252      1.10218      .   S
    C181   C183      1.39960      .   S
    C181   H38       1.08794      .   S
    C143   C141      1.40167  1_455   S
    H58    C193      1.09986      .   S
    C246   N290      1.33990      .   S
    H139   C262      1.10220  1_455   S
    C185   C93       1.36971      .   S
    N294   C258      1.35739      .   S
    H44    C93       1.08220      .   S
    H125   C252      1.10077  1_565   S
    H56    C193      1.09902      .   S
