# CIF file generated by openbabel 2.4.90, see http://openbabel.sf.net
data_I
_chemical_name_common ''
_cell_length_a 14.559
_cell_length_b 15.905
_cell_length_c 18.506
_cell_angle_alpha 89.983
_cell_angle_beta 86.855
_cell_angle_gamma 90.096
_space_group_name_H-M_alt 'P 1'
_space_group_name_Hall 'P 1'
loop_
    _symmetry_equiv_pos_as_xyz
    x,y,z
loop_
    _atom_site_label
    _atom_site_type_symbol
    _atom_site_fract_x
    _atom_site_fract_y
    _atom_site_fract_z
    _atom_site_occupancy
    N0      N    0.97326   0.03171   0.75265   1.000
    N1      N    0.97326   0.03170   0.25265   1.000
    N2      N    0.52647   0.53195   0.99735   1.000
    N3      N    0.52646   0.53195   0.49734   1.000
    N4      N    0.02672   0.96831   0.74733   1.000
    N5      N    0.02672   0.96831   0.24732   1.000
    N6      N    0.47351   0.46805   0.50264   1.000
    N7      N    0.47350   0.46806   0.00264   1.000
loop_
    _geom_bond_atom_site_label_1
    _geom_bond_atom_site_label_2
    _geom_bond_distance
    _geom_bond_site_symmetry_2
    _ccdc_geom_bond_type
    N7     N2        1.27519  1_554   S
    N5     N1        1.27533  1_465   S
    N3     N6        1.27520      .   S
    N4     N0        1.27534  1_465   S
