# CIF file generated by openbabel 2.4.90, see http://openbabel.sf.net
data_I
_chemical_name_common ''
_cell_length_a 14.559
_cell_length_b 15.905
_cell_length_c 18.506
_cell_angle_alpha 89.983
_cell_angle_beta 86.855
_cell_angle_gamma 90.096
_space_group_name_H-M_alt 'P 1'
_space_group_name_Hall 'P 1'
loop_
    _symmetry_equiv_pos_as_xyz
    x,y,z
loop_
    _atom_site_label
    _atom_site_type_symbol
    _atom_site_fract_x
    _atom_site_fract_y
    _atom_site_fract_z
    _atom_site_occupancy
    Zn0     Zn   0.17954   0.15282   0.12510   1.000
    Zn1     Zn   0.32032   0.65289   0.62478   1.000
    Zn2     Zn   0.32032   0.65289   0.12477   1.000
    Zn3     Zn   0.82043   0.84718   0.87488   1.000
    Zn4     Zn   0.82043   0.84718   0.37488   1.000
    Zn5     Zn   0.67965   0.34711   0.87522   1.000
    Zn6     Zn   0.67965   0.34711   0.37521   1.000
    Zn7     Zn   0.17954   0.15282   0.62511   1.000
    C8      C    0.33762   0.24299   0.65295   1.000
    C9      C    0.33762   0.24299   0.15295   1.000
    C10     C    0.61910   0.38864   0.73477   1.000
    C11     C    0.61910   0.38865   0.23476   1.000
    C12     C    0.83734   0.25677   0.90273   1.000
    C13     C    0.83733   0.25676   0.40273   1.000
    C14     C    0.11851   0.11158   0.48470   1.000
    C15     C    0.11852   0.11159   0.00000   1.000
    C16     C    0.66235   0.75701   0.84704   1.000
    C17     C    0.66235   0.75701   0.34703   1.000
    C18     C    0.38087   0.61135   0.76522   1.000
    C19     C    0.38087   0.61135   0.26521   1.000
    C20     C    0.16263   0.74323   0.59726   1.000
    C21     C    0.16263   0.74323   0.09725   1.000
    C22     C    0.88145   0.88841   0.01529   1.000
    C23     C    0.88145   0.88841   0.51528   1.000
    O24     O    0.09793   0.15238   0.54467   1.000
    O25     O    0.09793   0.15238   0.04466   1.000
    O26     O    0.78250   0.26763   0.85043   1.000
    O27     O    0.78250   0.26763   0.35042   1.000
    O28     O    0.83186   0.29506   0.96204   1.000
    O29     O    0.83187   0.29507   0.46202   1.000
    O30     O    0.18960   0.06952   0.97143   1.000
    O31     O    0.18959   0.06951   0.47142   1.000
    O32     O    0.40192   0.65185   0.70512   1.000
    O33     O    0.40192   0.65185   0.20511   1.000
    O34     O    0.71705   0.76792   0.89945   1.000
    O35     O    0.71704   0.76792   0.39944   1.000
    O36     O    0.66806   0.79527   0.78771   1.000
    O37     O    0.66805   0.79528   0.28771   1.000
    O38     O    0.30940   0.56961   0.77856   1.000
    O39     O    0.30940   0.56962   0.27856   1.000
    O40     O    0.90204   0.84763   0.95532   1.000
    O41     O    0.90204   0.84762   0.45531   1.000
    O42     O    0.21746   0.73236   0.64957   1.000
    O43     O    0.21747   0.73237   0.14956   1.000
    O44     O    0.16810   0.70493   0.53796   1.000
    O45     O    0.16811   0.70494   0.03795   1.000
    O46     O    0.81036   0.93046   0.52857   1.000
    O47     O    0.81036   0.93047   0.02856   1.000
    O48     O    0.59805   0.34814   0.79487   1.000
    O49     O    0.59805   0.34814   0.29486   1.000
    O50     O    0.28292   0.23208   0.60055   1.000
    O51     O    0.28292   0.23208   0.10054   1.000
    O52     O    0.33192   0.20472   0.71228   1.000
    O53     O    0.33192   0.20472   0.21227   1.000
    O54     O    0.69057   0.43038   0.72143   1.000
    O55     O    0.69057   0.43038   0.22142   1.000
loop_
    _geom_bond_atom_site_label_1
    _geom_bond_atom_site_label_2
    _geom_bond_distance
    _geom_bond_site_symmetry_2
    _ccdc_geom_bond_type
    C15    O25       1.08058      .   S
    C15    O30       1.31935  1_554   S
    C22    O47       1.24635      .   S
    C22    O40       1.30657  1_554   S
    O45    C21       1.25404      .   S
    O25    Zn0       1.95499      .   S
    C21    O43       1.29975      .   S
    O51    Zn0       1.99486      .   S
    O51    C9        1.29976      .   S
    Zn2    O43       1.99549      .   S
    Zn2    O33       1.95351      .   S
    C9     O53       1.25387      .   S
    O33    C19       1.30670      .   S
    O55    C11       1.24645      .   S
    C11    O49       1.30669      .   S
    C19    O39       1.24644      .   S
    O37    C17       1.25387      .   S
    O49    Zn6       1.95355      .   S
    C17    O35       1.29976      .   S
    O27    Zn6       1.99543      .   S
    O27    C13       1.29977      .   S
    Zn4    O35       1.99487      .   S
    Zn4    O41       1.95492      .   S
    C13    O29       1.25402      .   S
    O41    C23       1.30658      .   S
    O31    C14       1.24640      .   S
    C14    O24       1.30658      .   S
    C23    O46       1.24640      .   S
    O44    C20       1.25404      .   S
    O24    Zn7       1.95498      .   S
    C20    O42       1.29973      .   S
    O50    Zn7       1.99486      .   S
    O50    C8        1.29975      .   S
    Zn1    O42       1.99550      .   S
    Zn1    O32       1.95351      .   S
    C8     O52       1.25387      .   S
    O32    C18       1.30669      .   S
    O54    C10       1.24644      .   S
    C10    O48       1.30670      .   S
    C18    O38       1.24645      .   S
    O36    C16       1.25388      .   S
    O48    Zn5       1.95354      .   S
    C16    O34       1.29975      .   S
    O26    Zn5       1.99543      .   S
    O26    C12       1.29974      .   S
    Zn3    O34       1.99487      .   S
    Zn3    O40       1.95493      .   S
    C12    O28       1.25404      .   S
