# CIF file generated by openbabel 2.4.90, see http://openbabel.sf.net
data_I
_chemical_name_common ''
_cell_length_a 14.559
_cell_length_b 15.905
_cell_length_c 18.506
_cell_angle_alpha 89.983
_cell_angle_beta 86.855
_cell_angle_gamma 90.096
_space_group_name_H-M_alt 'P 1'
_space_group_name_Hall 'P 1'
loop_
    _symmetry_equiv_pos_as_xyz
    x,y,z
loop_
    _atom_site_label
    _atom_site_type_symbol
    _atom_site_fract_x
    _atom_site_fract_y
    _atom_site_fract_z
    _atom_site_occupancy
    Zn0     Zn   0.17954   0.15282   0.12510   1.000
    Zn1     Zn   0.32032   0.65289   0.62478   1.000
    Zn2     Zn   0.32032   0.65289   0.12477   1.000
    Zn3     Zn   0.82043   0.84718   0.87488   1.000
    Zn4     Zn   0.82043   0.84718   0.37488   1.000
    Zn5     Zn   0.67965   0.34711   0.87522   1.000
    Zn6     Zn   0.67965   0.34711   0.37521   1.000
    Zn7     Zn   0.17954   0.15282   0.62511   1.000
    C8      C    0.33762   0.24299   0.65295   1.000
    C9      C    0.33762   0.24299   0.15295   1.000
    C10     C    0.61910   0.38864   0.73477   1.000
    C11     C    0.61910   0.38865   0.23476   1.000
    C12     C    0.83734   0.25677   0.90273   1.000
    C13     C    0.83733   0.25676   0.40273   1.000
    C14     C    0.11851   0.11158   0.48470   1.000
    C15     C    0.11852   0.11159   0.00000   1.000
    C16     C    0.66235   0.75701   0.84704   1.000
    C17     C    0.66235   0.75701   0.34703   1.000
    C18     C    0.38087   0.61135   0.76522   1.000
    C19     C    0.38087   0.61135   0.26521   1.000
    C20     C    0.16263   0.74323   0.59726   1.000
    C21     C    0.16263   0.74323   0.09725   1.000
    C22     C    0.88145   0.88841   0.01529   1.000
    C23     C    0.88145   0.88841   0.51528   1.000
    O24     O    0.09793   0.15238   0.54467   1.000
    O25     O    0.09793   0.15238   0.04466   1.000
    O26     O    0.78250   0.26763   0.85043   1.000
    O27     O    0.78250   0.26763   0.35042   1.000
    O28     O    0.83186   0.29506   0.96204   1.000
    O29     O    0.83187   0.29507   0.46202   1.000
    O30     O    0.18960   0.06952   0.97143   1.000
    O31     O    0.18959   0.06951   0.47142   1.000
    O32     O    0.40192   0.65185   0.70512   1.000
    O33     O    0.40192   0.65185   0.20511   1.000
    O34     O    0.71705   0.76792   0.89945   1.000
    O35     O    0.71704   0.76792   0.39944   1.000
    O36     O    0.66806   0.79527   0.78771   1.000
    O37     O    0.66805   0.79528   0.28771   1.000
    O38     O    0.30940   0.56961   0.77856   1.000
    O39     O    0.30940   0.56962   0.27856   1.000
    O40     O    0.90204   0.84763   0.95532   1.000
    O41     O    0.90204   0.84762   0.45531   1.000
    O42     O    0.21746   0.73236   0.64957   1.000
    O43     O    0.21747   0.73237   0.14956   1.000
    O44     O    0.16810   0.70493   0.53796   1.000
    O45     O    0.16811   0.70494   0.03795   1.000
    O46     O    0.81036   0.93046   0.52857   1.000
    O47     O    0.81036   0.93047   0.02856   1.000
    O48     O    0.59805   0.34814   0.79487   1.000
    O49     O    0.59805   0.34814   0.29486   1.000
    O50     O    0.28292   0.23208   0.60055   1.000
    O51     O    0.28292   0.23208   0.10054   1.000
    O52     O    0.33192   0.20472   0.71228   1.000
    O53     O    0.33192   0.20472   0.21227   1.000
    O54     O    0.69057   0.43038   0.72143   1.000
    O55     O    0.69057   0.43038   0.22142   1.000
    Ts56    Ts   0.15386   0.17699   0.14980   1.000
    Ts57    Ts   0.19824   0.11618   0.13491   1.000
    Ts58    Ts   0.34604   0.67710   0.60003   1.000
    Ts59    Ts   0.30152   0.61626   0.61491   1.000
    Ts60    Ts   0.34604   0.67710   0.10002   1.000
    Ts61    Ts   0.30152   0.61626   0.11490   1.000
    Ts62    Ts   0.84610   0.82301   0.85019   1.000
    Ts63    Ts   0.80172   0.88382   0.86507   1.000
    Ts64    Ts   0.84610   0.82301   0.35018   1.000
    Ts65    Ts   0.80172   0.88382   0.36506   1.000
    Ts66    Ts   0.65393   0.32289   0.89996   1.000
    Ts67    Ts   0.69845   0.38373   0.88509   1.000
    Ts68    Ts   0.65393   0.32290   0.39996   1.000
    Ts69    Ts   0.69844   0.38373   0.38508   1.000
    Ts70    Ts   0.15387   0.17699   0.64981   1.000
    Ts71    Ts   0.19824   0.11618   0.63492   1.000
    Og72    Og   0.36234   0.26447   0.64829   1.000
    Og73    Og   0.36234   0.26447   0.14828   1.000
    Og74    Og   0.59516   0.38578   0.71626   1.000
    Og75    Og   0.59516   0.38578   0.21625   1.000
    Og76    Og   0.86202   0.23533   0.89807   1.000
    Og77    Og   0.86201   0.23531   0.39806   1.000
    Og78    Og   0.09458   0.11443   0.46619   1.000
    Og79    Og   0.09459   0.11444   0.97639   1.000
    Og80    Og   0.63763   0.73553   0.85171   1.000
    Og81    Og   0.63763   0.73552   0.35169   1.000
    Og82    Og   0.40481   0.61422   0.78373   1.000
    Og83    Og   0.40481   0.61422   0.28372   1.000
    Og84    Og   0.13796   0.76468   0.60192   1.000
    Og85    Og   0.13795   0.76467   0.10192   1.000
    Og86    Og   0.90538   0.88556   0.03379   1.000
    Og87    Og   0.90539   0.88556   0.53379   1.000
loop_
    _geom_bond_atom_site_label_1
    _geom_bond_atom_site_label_2
    _geom_bond_distance
    _geom_bond_site_symmetry_2
    _ccdc_geom_bond_type
    C15    O25       1.08058      .   S
    C15    O30       1.31935  1_554   S
    C22    O47       1.24635      .   S
    C22    O40       1.30657  1_554   S
    O45    C21       1.25404      .   S
    O25    Zn0       1.95499      .   S
    C21    O43       1.29975      .   S
    O51    Zn0       1.99486      .   S
    O51    C9        1.29976      .   S
    Zn2    O43       1.99549      .   S
    Zn2    O33       1.95351      .   S
    C9     O53       1.25387      .   S
    O33    C19       1.30670      .   S
    O55    C11       1.24645      .   S
    C11    O49       1.30669      .   S
    C19    O39       1.24644      .   S
    O37    C17       1.25387      .   S
    O49    Zn6       1.95355      .   S
    C17    O35       1.29976      .   S
    O27    Zn6       1.99543      .   S
    O27    C13       1.29977      .   S
    Zn4    O35       1.99487      .   S
    Zn4    O41       1.95492      .   S
    C13    O29       1.25402      .   S
    O41    C23       1.30658      .   S
    O31    C14       1.24640      .   S
    C14    O24       1.30658      .   S
    C23    O46       1.24640      .   S
    O44    C20       1.25404      .   S
    O24    Zn7       1.95498      .   S
    C20    O42       1.29973      .   S
    O50    Zn7       1.99486      .   S
    O50    C8        1.29975      .   S
    Zn1    O42       1.99550      .   S
    Zn1    O32       1.95351      .   S
    C8     O52       1.25387      .   S
    O32    C18       1.30669      .   S
    O54    C10       1.24644      .   S
    C10    O48       1.30670      .   S
    C18    O38       1.24645      .   S
    O36    C16       1.25388      .   S
    O48    Zn5       1.95354      .   S
    C16    O34       1.29975      .   S
    O26    Zn5       1.99543      .   S
    O26    C12       1.29974      .   S
    Zn3    O34       1.99487      .   S
    Zn3    O40       1.95493      .   S
    C12    O28       1.25404      .   S
    Zn0    Ts56      0.69155      .   S
    Zn0    Ts57      0.67270      .   S
    Zn1    Ts58      0.69205      .   S
    Zn1    Ts59      0.67279      .   S
    Zn2    Ts60      0.69205      .   S
    Zn2    Ts61      0.67279      .   S
    Zn3    Ts62      0.69155      .   S
    Zn3    Ts63      0.67273      .   S
    Zn4    Ts64      0.69155      .   S
    Zn4    Ts65      0.67274      .   S
    Zn5    Ts66      0.69203      .   S
    Zn5    Ts67      0.67279      .   S
    Zn6    Ts68      0.69204      .   S
    Zn6    Ts69      0.67279      .   S
    Zn7    Ts70      0.69156      .   S
    Zn7    Ts71      0.67271      .   S
    C8     Og72      0.49983      .   S
    C9     Og73      0.49983      .   S
    C10    Og74      0.50397      .   S
    C11    Og75      0.50397      .   S
    C12    Og76      0.49996      .   S
    C13    Og77      0.49996      .   S
    C14    Og78      0.50386      .   S
    C15    Og79      0.57534  1_554   S
    C16    Og80      0.49982      .   S
    C17    Og81      0.49982      .   S
    C18    Og82      0.50397      .   S
    C19    Og83      0.50397      .   S
    C20    Og84      0.49996      .   S
    C21    Og85      0.49996      .   S
    C22    Og86      0.50379      .   S
    C23    Og87      0.50387      .   S
