# CIF file generated by openbabel 2.4.90, see http://openbabel.sf.net
data_I
_chemical_name_common ''
_cell_length_a 14.559
_cell_length_b 15.905
_cell_length_c 18.506
_cell_angle_alpha 89.983
_cell_angle_beta 86.855
_cell_angle_gamma 90.096
_space_group_name_H-M_alt 'P 1'
_space_group_name_Hall 'P 1'
loop_
    _symmetry_equiv_pos_as_xyz
    x,y,z
loop_
    _atom_site_label
    _atom_site_type_symbol
    _atom_site_fract_x
    _atom_site_fract_y
    _atom_site_fract_z
    _atom_site_occupancy
    N0      N    0.00049   0.50000   0.24999   1.000
    N1      N    0.49998   0.00000   0.24999   1.000
    N2      N    0.51979   0.63056   0.37179   1.000
    N3      N    0.48018   0.36944   0.62819   1.000
    O4      O    0.48942   0.45337   0.54069   1.000
    N5      N    0.02026   0.86946   0.12190   1.000
    N6      N    0.97970   0.13054   0.37808   1.000
    O7      O    0.98922   0.04658   0.29065   1.000
    N8      N    0.99998   0.50000   0.49999   1.000
    N9      N    0.49999   0.00000   0.49999   1.000
    N10     N    0.00050   0.50001   0.75000   1.000
    N11     N    0.49999   0.00000   0.00032   1.000
    N12     N    0.48018   0.36943   0.12818   1.000
    N13     N    0.51979   0.63057   0.87181   1.000
    O14     O    0.48942   0.45337   0.04068   1.000
    N15     N    0.02027   0.86946   0.62190   1.000
    N16     N    0.97971   0.13055   0.87932   1.000
    O17     O    0.01075   0.95342   0.70933   1.000
    N18     N    0.99998   0.50000   0.99999   1.000
    N19     N    0.49998   0.00000   0.75000   1.000
    Zr20    Zr   0.28010   0.66660   0.66550   1.000
    O21     O    0.37419   0.64486   0.74895   1.000
    O22     O    0.35477   0.75560   0.60466   1.000
    O23     O    0.21308   0.60779   0.61024   1.000
    O24     O    0.17652   0.74452   0.63929   1.000
    Zr25    Zr   0.21972   0.16658   0.58453   1.000
    O26     O    0.28675   0.10776   0.63972   1.000
    O27     O    0.14524   0.25556   0.64530   1.000
    O28     O    0.12544   0.14489   0.50102   1.000
    O29     O    0.32358   0.24445   0.61080   1.000
    Zr30    Zr   0.78025   0.83341   0.91547   1.000
    O31     O    0.67639   0.75555   0.88919   1.000
    O32     O    0.87453   0.85510   0.99897   1.000
    O33     O    0.71321   0.89224   0.86027   1.000
    O34     O    0.85498   0.74444   0.85469   1.000
    Zr35    Zr   0.21972   0.16659   0.08671   1.000
    O36     O    0.12544   0.14490   0.00433   1.000
    O37     O    0.32358   0.24445   0.11189   1.000
    O38     O    0.28675   0.10776   0.14080   1.000
    O39     O    0.14524   0.25556   0.14639   1.000
    Zr40    Zr   0.28010   0.66661   0.16549   1.000
    O41     O    0.17652   0.74452   0.13928   1.000
    O42     O    0.37420   0.64486   0.24894   1.000
    O43     O    0.35477   0.75561   0.10473   1.000
    O44     O    0.21308   0.60779   0.11023   1.000
    Zr45    Zr   0.71987   0.33339   0.83450   1.000
    O46     O    0.62578   0.35514   0.75105   1.000
    O47     O    0.82345   0.25548   0.86101   1.000
    O48     O    0.78689   0.39221   0.88975   1.000
    O49     O    0.64520   0.24439   0.89541   1.000
    Zr50    Zr   0.78025   0.83341   0.41546   1.000
    O51     O    0.67639   0.75554   0.38918   1.000
    O52     O    0.87453   0.85511   0.49897   1.000
    O53     O    0.71321   0.89224   0.36027   1.000
    O54     O    0.85498   0.74444   0.35468   1.000
    Zr55    Zr   0.71987   0.33339   0.33449   1.000
    O56     O    0.64520   0.24439   0.39533   1.000
    O57     O    0.78689   0.39221   0.38975   1.000
    O58     O    0.82345   0.25548   0.36070   1.000
    O59     O    0.62577   0.35514   0.25104   1.000
loop_
    _geom_bond_atom_site_label_1
    _geom_bond_atom_site_label_2
    _geom_bond_distance
    _geom_bond_site_symmetry_2
    _ccdc_geom_bond_type
    N2     O4        4.21258      .   S
    N3     O4        2.09683      .   S
    N5     O7        4.21278  1_465   S
    N6     O7        2.09701      .   S
    N13    O14       4.21242  1_556   S
    N12    O14       2.09678      .   S
    N16    O17       4.22971  1_645   S
    N15    O17       2.09701      .   S
    Zr20   O21       2.14815      .   S
    N13    O21       3.20069      .   S
    Zr20   O22       2.07672      .   S
    N9     O22       4.78015  1_545   S
    Zr20   O23       1.72626      .   S
    N8     O23       4.17201  1_655   S
    Zr20   O24       2.03254      .   S
    N15    O24       3.05334      .   S
    Zr25   O26       1.72714      .   S
    N19    O26       4.17735      .   S
    Zr25   O27       2.07746      .   S
    N10    O27       4.78479      .   S
    Zr25   O28       2.15011      .   S
    N6     O28       3.20293  1_655   S
    Zr25   O29       2.03262      .   S
    N3     O29       3.05267      .   S
    Zr30   O31       2.03258      .   S
    N13    O31       3.05263      .   S
    Zr30   O32       2.15001      .   S
    N5     O32       3.20278  1_454   S
    Zr30   O33       1.72717      .   S
    N19    O33       4.17740  1_545   S
    Zr30   O34       2.07923      .   S
    N10    O34       4.78936  1_455   S
    Zr35   O36       2.13430      .   S
    N16    O36       3.23159  1_656   S
    Zr35   O37       2.02701      .   S
    N12    O37       3.04974      .   S
    Zr35   O38       1.71460      .   S
    N1     O38       4.16664      .   S
    Zr35   O39       2.06712      .   S
    N0     O39       4.77708      .   S
    Zr40   O41       2.03252      .   S
    N5     O41       3.05331      .   S
    Zr40   O42       2.14816      .   S
    N2     O42       3.20070      .   S
    Zr40   O43       2.07592      .   S
    N11    O43       4.77839  1_545   S
    Zr40   O44       1.72624      .   S
    N18    O44       4.17195  1_656   S
    Zr45   O46       2.14817      .   S
    N3     O46       3.20072      .   S
    Zr45   O47       2.03410      .   S
    N16    O47       3.05583      .   S
    Zr45   O48       1.72624      .   S
    N18    O48       4.17191      .   S
    Zr45   O49       2.07743      .   S
    N11    O49       4.78173  1_554   S
    Zr50   O51       2.03259      .   S
    N2     O51       3.05264      .   S
    Zr50   O52       2.15009      .   S
    N15    O52       3.20290  1_455   S
    Zr50   O53       1.72719      .   S
    N1     O53       4.17743  1_545   S
    Zr50   O54       2.07926      .   S
    N0     O54       4.78939  1_455   S
    Zr55   O56       2.07669      .   S
    N9     O56       4.78010      .   S
    Zr55   O57       1.72626      .   S
    N8     O57       4.17197      .   S
    Zr55   O58       2.03251      .   S
    N6     O58       3.05328      .   S
    Zr55   O59       2.14817      .   S
    N12    O59       3.20071      .   S
