# CIF file generated by openbabel 2.4.90, see http://openbabel.sf.net
data_I
_chemical_name_common ''
_cell_length_a 14.559
_cell_length_b 15.905
_cell_length_c 18.506
_cell_angle_alpha 89.983
_cell_angle_beta 86.855
_cell_angle_gamma 90.096
_space_group_name_H-M_alt 'P 1'
_space_group_name_Hall 'P 1'
loop_
    _symmetry_equiv_pos_as_xyz
    x,y,z
loop_
    _atom_site_label
    _atom_site_type_symbol
    _atom_site_fract_x
    _atom_site_fract_y
    _atom_site_fract_z
    _atom_site_occupancy
    Zr0     Zr   0.17954   0.15282   0.62511   1.000
    Zr1     Zr   0.17954   0.15282   0.12510   1.000
    Zr2     Zr   0.32032   0.65289   0.62478   1.000
    Zr3     Zr   0.32032   0.65289   0.12477   1.000
    Zr4     Zr   0.82043   0.84718   0.87488   1.000
    Zr5     Zr   0.82043   0.84718   0.37488   1.000
    Zr6     Zr   0.67965   0.34711   0.87522   1.000
    Zr7     Zr   0.67965   0.34711   0.37521   1.000
    Zr8     Zr   0.83734   0.25677   0.90273   1.000
    Zr9     Zr   0.83733   0.25676   0.40273   1.000
    Zr10    Zr   0.11851   0.11158   0.48470   1.000
    Zr11    Zr   0.11852   0.11159   0.00000   1.000
    Zr12    Zr   0.66235   0.75701   0.84704   1.000
    Zr13    Zr   0.66235   0.75701   0.34703   1.000
    Zr14    Zr   0.38087   0.61135   0.76522   1.000
    Zr15    Zr   0.38087   0.61135   0.26521   1.000
    Zr16    Zr   0.16263   0.74323   0.59726   1.000
    Zr17    Zr   0.16263   0.74323   0.09725   1.000
    Zr18    Zr   0.88145   0.88841   0.01529   1.000
    Zr19    Zr   0.88145   0.88841   0.51528   1.000
    Zr20    Zr   0.33762   0.24299   0.65295   1.000
    Zr21    Zr   0.33762   0.24299   0.15295   1.000
    Zr22    Zr   0.61910   0.38864   0.73477   1.000
    Zr23    Zr   0.61910   0.38865   0.23476   1.000
    Zr24    Zr   0.09793   0.15238   0.54467   1.000
    Zr25    Zr   0.09793   0.15238   0.04466   1.000
    Zr26    Zr   0.78250   0.26763   0.85043   1.000
    Zr27    Zr   0.78250   0.26763   0.35042   1.000
    Zr28    Zr   0.83186   0.29506   0.96204   1.000
    Zr29    Zr   0.83187   0.29507   0.46202   1.000
    Zr30    Zr   0.18960   0.06952   0.97143   1.000
    Zr31    Zr   0.18959   0.06951   0.47142   1.000
    Zr32    Zr   0.40192   0.65185   0.70512   1.000
    Zr33    Zr   0.40192   0.65185   0.20511   1.000
    Zr34    Zr   0.71705   0.76792   0.89945   1.000
    Zr35    Zr   0.71704   0.76792   0.39944   1.000
    Zr36    Zr   0.66806   0.79527   0.78771   1.000
    Zr37    Zr   0.66805   0.79528   0.28771   1.000
    Zr38    Zr   0.30940   0.56961   0.77856   1.000
    Zr39    Zr   0.30940   0.56962   0.27856   1.000
    Zr40    Zr   0.90204   0.84763   0.95532   1.000
    Zr41    Zr   0.90204   0.84762   0.45531   1.000
    Zr42    Zr   0.21746   0.73236   0.64957   1.000
    Zr43    Zr   0.21747   0.73237   0.14956   1.000
    Zr44    Zr   0.16810   0.70493   0.53796   1.000
    Zr45    Zr   0.16811   0.70494   0.03795   1.000
    Zr46    Zr   0.81036   0.93046   0.52857   1.000
    Zr47    Zr   0.81036   0.93047   0.02856   1.000
    Zr48    Zr   0.59805   0.34814   0.79487   1.000
    Zr49    Zr   0.59805   0.34814   0.29486   1.000
    Zr50    Zr   0.28292   0.23208   0.60055   1.000
    Zr51    Zr   0.28292   0.23208   0.10054   1.000
    Zr52    Zr   0.33192   0.20472   0.71228   1.000
    Zr53    Zr   0.33192   0.20472   0.21227   1.000
    Zr54    Zr   0.69057   0.43038   0.72143   1.000
    Zr55    Zr   0.69057   0.43038   0.22142   1.000
    O56     O    0.10823   0.13198   0.02233   1.000
    O57     O    0.15406   0.09055   0.98571   1.000
    O58     O    0.84591   0.90944   0.02193   1.000
    O59     O    0.89175   0.86802   0.98531   1.000
    O60     O    0.16537   0.72408   0.06760   1.000
    O61     O    0.13874   0.15260   0.08488   1.000
    O62     O    0.19005   0.73780   0.12340   1.000
    O63     O    0.23123   0.19245   0.11282   1.000
    O64     O    0.31027   0.23754   0.12674   1.000
    O65     O    0.26889   0.69263   0.13716   1.000
    O66     O    0.36112   0.65237   0.16494   1.000
    O67     O    0.33477   0.22386   0.18261   1.000
    O68     O    0.39139   0.63160   0.23516   1.000
    O69     O    0.65484   0.40951   0.22809   1.000
    O70     O    0.60858   0.36839   0.26481   1.000
    O71     O    0.34513   0.59049   0.27189   1.000
    O72     O    0.66520   0.77614   0.31737   1.000
    O73     O    0.63885   0.34762   0.33503   1.000
    O74     O    0.68970   0.76246   0.37324   1.000
    O75     O    0.73107   0.30737   0.36281   1.000
    O76     O    0.80991   0.26220   0.37658   1.000
    O77     O    0.76874   0.80755   0.38716   1.000
    O78     O    0.86123   0.84740   0.41509   1.000
    O79     O    0.83460   0.27592   0.43238   1.000
    O80     O    0.89175   0.86802   0.48530   1.000
    O81     O    0.15405   0.09055   0.47806   1.000
    O82     O    0.10822   0.13198   0.51468   1.000
    O83     O    0.84591   0.90944   0.52193   1.000
    O84     O    0.16537   0.72408   0.56761   1.000
    O85     O    0.13874   0.15260   0.58489   1.000
    O86     O    0.19005   0.73780   0.62341   1.000
    O87     O    0.23123   0.19245   0.61283   1.000
    O88     O    0.31027   0.23753   0.62675   1.000
    O89     O    0.26889   0.69263   0.63717   1.000
    O90     O    0.36112   0.65237   0.66495   1.000
    O91     O    0.33477   0.22385   0.68262   1.000
    O92     O    0.39139   0.63160   0.73517   1.000
    O93     O    0.65484   0.40951   0.72810   1.000
    O94     O    0.60858   0.36839   0.76482   1.000
    O95     O    0.34514   0.59048   0.77189   1.000
    O96     O    0.66520   0.77614   0.81738   1.000
    O97     O    0.63885   0.34762   0.83504   1.000
    O98     O    0.68970   0.76246   0.87325   1.000
    O99     O    0.73108   0.30737   0.86282   1.000
    O100    O    0.80992   0.26220   0.87658   1.000
    O101    O    0.76874   0.80755   0.88717   1.000
    O102    O    0.86123   0.84740   0.91510   1.000
    O103    O    0.83460   0.27591   0.93239   1.000
    N104    N    0.00049   0.50000   0.24999   1.000
    O105    O    0.07076   0.34454   0.20607   1.000
    O106    O    0.92972   0.65547   0.29391   1.000
    N107    N    0.49998   0.00000   0.24999   1.000
    O108    O    0.35379   0.04893   0.19490   1.000
    O109    O    0.64617   0.95107   0.30507   1.000
    N110    N    0.51979   0.63056   0.37179   1.000
    O111    O    0.46829   0.62311   0.33239   1.000
    O112    O    0.57253   0.67767   0.36291   1.000
    N113    N    0.48018   0.36944   0.62819   1.000
    O114    O    0.53168   0.37689   0.66760   1.000
    O115    O    0.42744   0.32232   0.63708   1.000
    O116    O    0.48942   0.45337   0.54069   1.000
    N117    N    0.02026   0.86946   0.12190   1.000
    O118    O    0.96881   0.87680   0.08247   1.000
    O119    O    0.07294   0.82243   0.11307   1.000
    N120    N    0.97970   0.13054   0.37808   1.000
    O121    O    0.92703   0.17756   0.38690   1.000
    O122    O    0.03116   0.12320   0.41751   1.000
    O123    O    0.98922   0.04658   0.29065   1.000
    N124    N    0.99998   0.50000   0.49999   1.000
    O125    O    0.14605   0.54898   0.55498   1.000
    O126    O    0.85391   0.45102   0.44501   1.000
    N127    N    0.49999   0.00000   0.49999   1.000
    O128    O    0.42945   0.84461   0.54383   1.000
    O129    O    0.57053   0.15539   0.45616   1.000
    N130    N    0.00050   0.50001   0.75000   1.000
    O131    O    0.92972   0.65547   0.79392   1.000
    O132    O    0.07076   0.34454   0.70608   1.000
    N133    N    0.49999   0.00000   0.00032   1.000
    O134    O    0.42945   0.84461   0.04398   1.000
    O135    O    0.57053   0.15539   0.95633   1.000
    N136    N    0.48018   0.36943   0.12818   1.000
    O137    O    0.53168   0.37689   0.16759   1.000
    O138    O    0.42744   0.32232   0.13707   1.000
    N139    N    0.51979   0.63057   0.87181   1.000
    O140    O    0.46828   0.62311   0.83240   1.000
    O141    O    0.57253   0.67768   0.86292   1.000
    O142    O    0.48942   0.45337   0.04068   1.000
    N143    N    0.02027   0.86946   0.62190   1.000
    O144    O    0.07294   0.82243   0.61308   1.000
    O145    O    0.96881   0.87680   0.58247   1.000
    N146    N    0.97971   0.13055   0.87932   1.000
    O147    O    0.92704   0.17757   0.88753   1.000
    O148    O    0.03117   0.12321   0.92196   1.000
    O149    O    0.01075   0.95342   0.70933   1.000
    N150    N    0.99998   0.50000   0.99999   1.000
    O151    O    0.85391   0.45102   0.94501   1.000
    O152    O    0.14605   0.54898   0.05498   1.000
    N153    N    0.49998   0.00000   0.75000   1.000
    O154    O    0.64617   0.95107   0.80508   1.000
    O155    O    0.35379   0.04893   0.69491   1.000
loop_
    _geom_bond_atom_site_label_1
    _geom_bond_atom_site_label_2
    _geom_bond_distance
    _geom_bond_site_symmetry_2
    _ccdc_geom_bond_type
    Zr11   O56       0.54029      .   S
    Zr25   O56       0.54029      .   S
    Zr11   O57       0.65968  1_554   S
    Zr30   O57       0.65968      .   S
    Zr18   O58       0.62317      .   S
    Zr47   O58       0.62317      .   S
    Zr18   O59       0.65329  1_554   S
    Zr40   O59       0.65329      .   S
    Zr45   O60       0.62702      .   S
    Zr17   O60       0.62702      .   S
    Zr25   O61       0.97750      .   S
    Zr1    O61       0.97750      .   S
    Zr17   O62       0.64988      .   S
    Zr43   O62       0.64988      .   S
    Zr51   O63       0.99743      .   S
    Zr1    O63       0.99743      .   S
    Zr51   O64       0.64988      .   S
    Zr21   O64       0.64988      .   S
    Zr3    O65       0.99774      .   S
    Zr43   O65       0.99774      .   S
    Zr3    O66       0.97675      .   S
    Zr33   O66       0.97675      .   S
    Zr21   O67       0.62694      .   S
    Zr53   O67       0.62694      .   S
    Zr33   O68       0.65335      .   S
    Zr15   O68       0.65335      .   S
    Zr55   O69       0.62322      .   S
    Zr23   O69       0.62322      .   S
    Zr23   O70       0.65335      .   S
    Zr49   O70       0.65335      .   S
    Zr15   O71       0.62322      .   S
    Zr39   O71       0.62322      .   S
    Zr37   O72       0.62693      .   S
    Zr13   O72       0.62693      .   S
    Zr49   O73       0.97677      .   S
    Zr7    O73       0.97677      .   S
    Zr13   O74       0.64988      .   S
    Zr35   O74       0.64988      .   S
    Zr27   O75       0.99772      .   S
    Zr7    O75       0.99772      .   S
    Zr27   O76       0.64988      .   S
    Zr9    O76       0.64988      .   S
    Zr5    O77       0.99743      .   S
    Zr35   O77       0.99743      .   S
    Zr5    O78       0.97746      .   S
    Zr41   O78       0.97746      .   S
    Zr9    O79       0.62701      .   S
    Zr29   O79       0.62701      .   S
    Zr41   O80       0.65329      .   S
    Zr19   O80       0.65329      .   S
    Zr31   O81       0.62320      .   S
    Zr10   O81       0.62320      .   S
    Zr10   O82       0.65329      .   S
    Zr24   O82       0.65329      .   S
    Zr19   O83       0.62320      .   S
    Zr46   O83       0.62320      .   S
    Zr44   O84       0.62702      .   S
    Zr16   O84       0.62702      .   S
    Zr24   O85       0.97749      .   S
    Zr0    O85       0.97749      .   S
    Zr16   O86       0.64987      .   S
    Zr42   O86       0.64987      .   S
    Zr50   O87       0.99743      .   S
    Zr0    O87       0.99743      .   S
    Zr50   O88       0.64988      .   S
    Zr20   O88       0.64988      .   S
    Zr2    O89       0.99775      .   S
    Zr42   O89       0.99775      .   S
    Zr2    O90       0.97675      .   S
    Zr32   O90       0.97675      .   S
    Zr20   O91       0.62694      .   S
    Zr52   O91       0.62694      .   S
    Zr32   O92       0.65335      .   S
    Zr14   O92       0.65335      .   S
    Zr54   O93       0.62322      .   S
    Zr22   O93       0.62322      .   S
    Zr22   O94       0.65335      .   S
    Zr48   O94       0.65335      .   S
    Zr14   O95       0.62323      .   S
    Zr38   O95       0.62323      .   S
    Zr36   O96       0.62694      .   S
    Zr12   O96       0.62694      .   S
    Zr48   O97       0.97677      .   S
    Zr6    O97       0.97677      .   S
    Zr12   O98       0.64987      .   S
    Zr34   O98       0.64987      .   S
    Zr26   O99       0.99772      .   S
    Zr6    O99       0.99772      .   S
    Zr26   O100      0.64987      .   S
    Zr8    O100      0.64987      .   S
    Zr4    O101      0.99744      .   S
    Zr34   O101      0.99744      .   S
    Zr4    O102      0.97746      .   S
    Zr40   O102      0.97746      .   S
    Zr8    O103      0.62702      .   S
    Zr28   O103      0.62702      .   S
    N104   O105      2.78202      .   S
    Zr1    O105      3.71619      .   S
    N104   O106      2.78461  1_455   S
    Zr5    O106      3.71915      .   S
    N107   O108      2.53339      .   S
    Zr1    O108      3.34763      .   S
    N107   O109      2.53343  1_545   S
    Zr5    O109      3.34774      .   S
    N110   O111      1.08072      .   S
    Zr15   O111      1.83659      .   S
    N110   O112      1.07806      .   S
    Zr13   O112      1.82767      .   S
    N113   O114      1.08073      .   S
    Zr22   O114      1.83660      .   S
    N113   O115      1.07806      .   S
    Zr20   O115      1.82767      .   S
    N110   O116      4.21258      .   S
    N113   O116      2.09683      .   S
    N117   O118      1.08049  1_455   S
    Zr18   O118      1.83611      .   S
    N117   O119      1.07820      .   S
    Zr17   O119      1.82801      .   S
    N120   O121      1.07819      .   S
    Zr9    O121      1.82799      .   S
    N120   O122      1.08054  1_655   S
    Zr10   O122      1.83626      .   S
    N117   O123      4.21278  1_465   S
    N120   O123      2.09701      .   S
    N124   O125      2.52930  1_655   S
    Zr2    O125      3.34425      .   S
    N124   O126      2.52927      .   S
    Zr7    O126      3.34420      .   S
    N127   O128      2.77853  1_545   S
    Zr2    O128      3.71302      .   S
    N127   O129      2.77851      .   S
    Zr7    O129      3.71296      .   S
    N130   O131      2.78460  1_455   S
    Zr4    O131      3.71914      .   S
    N130   O132      2.78202      .   S
    Zr0    O132      3.71622      .   S
    N133   O134      2.77770  1_545   S
    Zr3    O134      3.71186      .   S
    N133   O135      2.77928  1_554   S
    Zr6    O135      3.71404      .   S
    N136   O137      1.08073      .   S
    Zr23   O137      1.83660      .   S
    N136   O138      1.07806      .   S
    Zr21   O138      1.82767      .   S
    N139   O140      1.08072      .   S
    Zr14   O140      1.83659      .   S
    N139   O141      1.07806      .   S
    Zr12   O141      1.82766      .   S
    N139   O142      4.21242  1_556   S
    N136   O142      2.09678      .   S
    N143   O144      1.07821      .   S
    Zr16   O144      1.82802      .   S
    N143   O145      1.08054  1_455   S
    Zr19   O145      1.83626      .   S
    N146   O147      1.07696      .   S
    Zr8    O147      1.82665      .   S
    N146   O148      1.12360  1_655   S
    Zr11   O148      1.98484  1_554   S
    N146   O149      4.22971  1_645   S
    N143   O149      2.09701      .   S
    N150   O151      2.52923      .   S
    Zr6    O151      3.34418      .   S
    N150   O152      2.52926  1_656   S
    Zr3    O152      3.34422      .   S
    N153   O154      2.53342  1_545   S
    Zr4    O154      3.34772      .   S
    N153   O155      2.53341      .   S
    Zr0    O155      3.34764      .   S
