# CIF file generated by openbabel 2.4.90, see http://openbabel.sf.net
data_I
_chemical_name_common ''
_cell_length_a 14.559
_cell_length_b 15.905
_cell_length_c 18.506
_cell_angle_alpha 89.983
_cell_angle_beta 86.855
_cell_angle_gamma 90.096
_space_group_name_H-M_alt 'P 1'
_space_group_name_Hall 'P 1'
loop_
    _symmetry_equiv_pos_as_xyz
    x,y,z
loop_
    _atom_site_label
    _atom_site_type_symbol
    _atom_site_fract_x
    _atom_site_fract_y
    _atom_site_fract_z
    _atom_site_occupancy
    C0      C    0.17954   0.15282   0.62511   1.000
    C1      C    0.17954   0.15282   0.12510   1.000
    C2      C    0.32032   0.65289   0.62478   1.000
    C3      C    0.32032   0.65289   0.12477   1.000
    C4      C    0.82043   0.84718   0.87488   1.000
    C5      C    0.82043   0.84718   0.37488   1.000
    C6      C    0.67965   0.34711   0.87522   1.000
    C7      C    0.67965   0.34711   0.37521   1.000
    C8      C    0.97361   0.21811   0.48883   1.000
    C9      C    0.97362   0.21811   0.00000   1.000
    C10     C    0.10142   0.02153   0.85918   1.000
    C11     C    0.10141   0.02152   0.35918   1.000
    C12     C    0.86325   0.15067   0.78636   1.000
    C13     C    0.86324   0.15066   0.28636   1.000
    C14     C    0.07452   0.34918   0.84198   1.000
    C15     C    0.07451   0.34918   0.34198   1.000
    C16     C    0.00000   0.26397   0.64054   1.000
    C17     C    0.00000   0.26397   0.14053   1.000
    C18     C    0.19481   0.22672   0.78623   1.000
    C19     C    0.19480   0.22671   0.28623   1.000
    C20     C    0.90650   0.38902   0.80331   1.000
    C21     C    0.90649   0.38902   0.30329   1.000
    C22     C    0.88033   0.36837   0.71388   1.000
    C23     C    0.88032   0.36836   0.21386   1.000
    C24     C    0.99897   0.47683   0.66951   1.000
    C25     C    0.99896   0.47682   0.16949   1.000
    C26     C    0.90334   0.51560   0.72289   1.000
    C27     C    0.90334   0.51560   0.22287   1.000
    C28     C    0.34562   0.86338   0.62557   1.000
    C29     C    0.34562   0.86338   0.12555   1.000
    C30     C    0.38578   0.85683   0.76341   1.000
    C31     C    0.38578   0.85682   0.26339   1.000
    C32     C    0.36517   0.94876   0.81627   1.000
    C33     C    0.36517   0.94875   0.31625   1.000
    C34     C    0.27698   0.07028   0.76206   1.000
    C35     C    0.27699   0.07028   0.26205   1.000
    C36     C    0.23178   0.97438   0.55462   1.000
    C37     C    0.23178   0.97439   0.05460   1.000
    C38     C    0.53383   0.91783   0.78468   1.000
    C39     C    0.53383   0.91783   0.28467   1.000
    C40     C    0.51451   0.93013   0.69280   1.000
    C41     C    0.51451   0.93013   0.19279   1.000
    C42     C    0.52593   0.71798   0.76091   1.000
    C43     C    0.52593   0.71797   0.26089   1.000
    C44     C    0.39790   0.52134   0.89098   1.000
    C45     C    0.39791   0.52133   0.39096   1.000
    C46     C    0.63633   0.65108   0.96343   1.000
    C47     C    0.63634   0.65107   0.46341   1.000
    C48     C    0.42598   0.84858   0.90716   1.000
    C49     C    0.42598   0.84858   0.40715   1.000
    C50     C    0.51430   0.76472   0.60911   1.000
    C51     C    0.51431   0.76472   0.10910   1.000
    C52     C    0.30536   0.72625   0.96339   1.000
    C53     C    0.30536   0.72625   0.46338   1.000
    C54     C    0.59307   0.88976   0.94554   1.000
    C55     C    0.59307   0.88976   0.44554   1.000
    C56     C    0.62044   0.86866   0.53462   1.000
    C57     C    0.62044   0.86866   0.03461   1.000
    C58     C    0.50248   0.97655   0.58037   1.000
    C59     C    0.50248   0.97655   0.08036   1.000
    C60     C    0.59712   0.01602   0.52612   1.000
    C61     C    0.59712   0.01602   0.02611   1.000
    C62     C    0.15518   0.36237   0.62331   1.000
    C63     C    0.15517   0.36238   0.12330   1.000
    C64     C    0.11356   0.35685   0.98597   1.000
    C65     C    0.11356   0.35685   0.48596   1.000
    C66     C    0.13430   0.44896   0.93324   1.000
    C67     C    0.13430   0.44896   0.43324   1.000
    C68     C    0.22190   0.57104   0.98798   1.000
    C69     C    0.22189   0.57104   0.48798   1.000
    C70     C    0.26860   0.47362   0.69465   1.000
    C71     C    0.26860   0.47362   0.19464   1.000
    C72     C    0.96570   0.41810   0.96501   1.000
    C73     C    0.96570   0.41810   0.46501   1.000
    C74     C    0.98530   0.42976   0.55691   1.000
    C75     C    0.98530   0.42976   0.05690   1.000
    C76     C    0.02635   0.78189   0.01116   1.000
    C77     C    0.02635   0.78189   0.51115   1.000
    C78     C    0.89856   0.97849   0.64080   1.000
    C79     C    0.89856   0.97848   0.14079   1.000
    C80     C    0.13673   0.84934   0.71362   1.000
    C81     C    0.13672   0.84934   0.21361   1.000
    C82     C    0.92547   0.65083   0.65800   1.000
    C83     C    0.92546   0.65083   0.15799   1.000
    C84     C    0.01427   0.73605   0.85946   1.000
    C85     C    0.01427   0.73604   0.35945   1.000
    C86     C    0.80517   0.77329   0.71375   1.000
    C87     C    0.80517   0.77330   0.21374   1.000
    C88     C    0.09349   0.61100   0.69669   1.000
    C89     C    0.09348   0.61099   0.19668   1.000
    C90     C    0.11965   0.63165   0.78612   1.000
    C91     C    0.11964   0.63165   0.28611   1.000
    C92     C    0.00101   0.52319   0.83049   1.000
    C93     C    0.00101   0.52319   0.33048   1.000
    C94     C    0.09664   0.48442   0.77711   1.000
    C95     C    0.09663   0.48442   0.27710   1.000
    C96     C    0.65437   0.13663   0.87443   1.000
    C97     C    0.65436   0.13662   0.37441   1.000
    C98     C    0.61418   0.14318   0.73660   1.000
    C99     C    0.61418   0.14318   0.23658   1.000
    C100    C    0.63478   0.05126   0.68373   1.000
    C101    C    0.63479   0.05125   0.18372   1.000
    C102    C    0.72296   0.92971   0.73794   1.000
    C103    C    0.72297   0.92971   0.23792   1.000
    C104    C    0.76820   0.02562   0.94538   1.000
    C105    C    0.76819   0.02562   0.44537   1.000
    C106    C    0.46612   0.08218   0.71532   1.000
    C107    C    0.46613   0.08217   0.21530   1.000
    C108    C    0.48545   0.06988   0.80720   1.000
    C109    C    0.48545   0.06987   0.30719   1.000
    C110    C    0.47404   0.28203   0.73909   1.000
    C111    C    0.47404   0.28203   0.23908   1.000
    C112    C    0.60206   0.47866   0.60902   1.000
    C113    C    0.60206   0.47866   0.10901   1.000
    C114    C    0.36363   0.34892   0.53657   1.000
    C115    C    0.36363   0.34892   0.03656   1.000
    C116    C    0.57400   0.15142   0.59284   1.000
    C117    C    0.57399   0.15142   0.09283   1.000
    C118    C    0.48566   0.23529   0.89089   1.000
    C119    C    0.48566   0.23528   0.39088   1.000
    C120    C    0.69461   0.27376   0.53661   1.000
    C121    C    0.69461   0.27376   0.03660   1.000
    C122    C    0.40691   0.11024   0.55446   1.000
    C123    C    0.40691   0.11024   0.05445   1.000
    C124    C    0.37954   0.13134   0.96538   1.000
    C125    C    0.37954   0.13134   0.46537   1.000
    C126    C    0.49750   0.02345   0.91963   1.000
    C127    C    0.49750   0.02345   0.41962   1.000
    C128    C    0.40286   0.98398   0.97388   1.000
    C129    C    0.40286   0.98398   0.47387   1.000
    C130    C    0.84479   0.63762   0.87668   1.000
    C131    C    0.84479   0.63762   0.37667   1.000
    C132    C    0.88639   0.64316   0.51402   1.000
    C133    C    0.88640   0.64315   0.01401   1.000
    C134    C    0.86566   0.55105   0.56675   1.000
    C135    C    0.86566   0.55105   0.06674   1.000
    C136    C    0.77806   0.42897   0.51201   1.000
    C137    C    0.77806   0.42897   0.01201   1.000
    C138    C    0.73137   0.52637   0.80534   1.000
    C139    C    0.73137   0.52637   0.30533   1.000
    C140    C    0.03426   0.58191   0.53498   1.000
    C141    C    0.03426   0.58191   0.03498   1.000
    C142    C    0.01466   0.57025   0.94309   1.000
    C143    C    0.01466   0.57024   0.44308   1.000
    C144    C    0.97703   0.18027   0.93988   1.000
    C145    C    0.97701   0.18026   0.43988   1.000
    C146    C    0.04672   0.12015   0.92918   1.000
    C147    C    0.04672   0.12014   0.42918   1.000
    C148    C    0.83734   0.25677   0.90273   1.000
    C149    C    0.83733   0.25676   0.40273   1.000
    C150    C    0.11851   0.11158   0.48470   1.000
    C151    C    0.11852   0.11159   0.00000   1.000
    C152    C    0.91138   0.19243   0.88873   1.000
    C153    C    0.91137   0.19242   0.38873   1.000
    C154    C    0.04856   0.06940   0.86748   1.000
    C155    C    0.04856   0.06939   0.36748   1.000
    C156    C    0.91423   0.14248   0.82662   1.000
    C157    C    0.91423   0.14247   0.32662   1.000
    C158    C    0.98117   0.07988   0.81644   1.000
    C159    C    0.98116   0.07987   0.31644   1.000
    C160    C    0.07561   0.31425   0.79188   1.000
    C161    C    0.07560   0.31424   0.29187   1.000
    C162    C    0.02734   0.27054   0.68702   1.000
    C163    C    0.02734   0.27054   0.18701   1.000
    C164    C    0.13305   0.25235   0.76485   1.000
    C165    C    0.13304   0.25234   0.26485   1.000
    C166    C    0.93580   0.38954   0.74736   1.000
    C167    C    0.93579   0.38953   0.24734   1.000
    C168    C    0.96698   0.47859   0.72486   1.000
    C169    C    0.96698   0.47859   0.22485   1.000
    C170    C    0.31625   0.92333   0.64178   1.000
    C171    C    0.31625   0.92333   0.14176   1.000
    C172    C    0.39108   0.92577   0.76294   1.000
    C173    C    0.39108   0.92577   0.26292   1.000
    C174    C    0.27836   0.02920   0.71547   1.000
    C175    C    0.27836   0.02919   0.21546   1.000
    C176    C    0.25856   0.97678   0.60811   1.000
    C177    C    0.25856   0.97678   0.10810   1.000
    C178    C    0.49158   0.95261   0.74716   1.000
    C179    C    0.49158   0.95260   0.24715   1.000
    C180    C    0.52252   0.68020   0.80992   1.000
    C181    C    0.52252   0.68020   0.30991   1.000
    C182    C    0.45269   0.61997   0.82076   1.000
    C183    C    0.45270   0.61996   0.32074   1.000
    C184    C    0.66235   0.75701   0.84704   1.000
    C185    C    0.66235   0.75701   0.34703   1.000
    C186    C    0.38087   0.61135   0.76522   1.000
    C187    C    0.38087   0.61135   0.26521   1.000
    C188    C    0.58819   0.69257   0.86103   1.000
    C189    C    0.58820   0.69256   0.36102   1.000
    C190    C    0.45083   0.56930   0.88254   1.000
    C191    C    0.45084   0.56929   0.38253   1.000
    C192    C    0.58532   0.64272   0.92321   1.000
    C193    C    0.58533   0.64271   0.42319   1.000
    C194    C    0.51836   0.57997   0.93350   1.000
    C195    C    0.51837   0.57996   0.43349   1.000
    C196    C    0.42470   0.81396   0.95745   1.000
    C197    C    0.42470   0.81396   0.45744   1.000
    C198    C    0.47273   0.77094   0.56256   1.000
    C199    C    0.47273   0.77094   0.06255   1.000
    C200    C    0.36711   0.75212   0.98473   1.000
    C201    C    0.36711   0.75211   0.48472   1.000
    C202    C    0.56450   0.88986   0.00170   1.000
    C203    C    0.56450   0.88986   0.50169   1.000
    C204    C    0.53351   0.97868   0.52472   1.000
    C205    C    0.53351   0.97868   0.02471   1.000
    C206    C    0.18409   0.42270   0.60740   1.000
    C207    C    0.18409   0.42270   0.10739   1.000
    C208    C    0.10851   0.42579   0.98658   1.000
    C209    C    0.10851   0.42579   0.48657   1.000
    C210    C    0.22103   0.52949   0.53427   1.000
    C211    C    0.22103   0.52950   0.03426   1.000
    C212    C    0.24161   0.47631   0.64124   1.000
    C213    C    0.24161   0.47631   0.14123   1.000
    C214    C    0.00816   0.45258   0.50262   1.000
    C215    C    0.00817   0.45258   0.00261   1.000
    C216    C    0.02295   0.81974   0.56010   1.000
    C217    C    0.02295   0.81973   0.06010   1.000
    C218    C    0.95325   0.87986   0.57080   1.000
    C219    C    0.95325   0.87985   0.07080   1.000
    C220    C    0.16263   0.74323   0.59726   1.000
    C221    C    0.16263   0.74323   0.09725   1.000
    C222    C    0.88145   0.88841   0.01529   1.000
    C223    C    0.88145   0.88841   0.51528   1.000
    C224    C    0.08860   0.80758   0.61125   1.000
    C225    C    0.08859   0.80757   0.11125   1.000
    C226    C    0.95142   0.93061   0.63250   1.000
    C227    C    0.95141   0.93061   0.13249   1.000
    C228    C    0.08574   0.85753   0.67336   1.000
    C229    C    0.08574   0.85752   0.17336   1.000
    C230    C    0.01881   0.92014   0.68354   1.000
    C231    C    0.01881   0.92013   0.18353   1.000
    C232    C    0.92437   0.68577   0.70811   1.000
    C233    C    0.92437   0.68577   0.20810   1.000
    C234    C    0.97263   0.72947   0.81297   1.000
    C235    C    0.97263   0.72947   0.31296   1.000
    C236    C    0.86693   0.74767   0.73513   1.000
    C237    C    0.86692   0.74767   0.23512   1.000
    C238    C    0.06418   0.61048   0.75264   1.000
    C239    C    0.06418   0.61048   0.25263   1.000
    C240    C    0.03300   0.52142   0.77513   1.000
    C241    C    0.03299   0.52142   0.27512   1.000
    C242    C    0.68372   0.07668   0.85822   1.000
    C243    C    0.68371   0.07667   0.35821   1.000
    C244    C    0.60888   0.07424   0.73706   1.000
    C245    C    0.60888   0.07424   0.23705   1.000
    C246    C    0.72159   0.97080   0.78453   1.000
    C247    C    0.72159   0.97080   0.28451   1.000
    C248    C    0.74141   0.02322   0.89188   1.000
    C249    C    0.74140   0.02322   0.39187   1.000
    C250    C    0.50838   0.04740   0.75284   1.000
    C251    C    0.50838   0.04740   0.25282   1.000
    C252    C    0.47745   0.31980   0.69007   1.000
    C253    C    0.47745   0.31980   0.19007   1.000
    C254    C    0.54727   0.38004   0.67924   1.000
    C255    C    0.54727   0.38004   0.17923   1.000
    C256    C    0.33762   0.24299   0.65295   1.000
    C257    C    0.33762   0.24299   0.15295   1.000
    C258    C    0.61910   0.38864   0.73477   1.000
    C259    C    0.61910   0.38865   0.23476   1.000
    C260    C    0.41177   0.30743   0.63897   1.000
    C261    C    0.41177   0.30743   0.13896   1.000
    C262    C    0.54913   0.43071   0.61746   1.000
    C263    C    0.54913   0.43071   0.11745   1.000
    C264    C    0.41464   0.35729   0.57679   1.000
    C265    C    0.41464   0.35729   0.07678   1.000
    C266    C    0.48160   0.42004   0.56650   1.000
    C267    C    0.48160   0.42004   0.06649   1.000
    C268    C    0.57527   0.18604   0.54255   1.000
    C269    C    0.57527   0.18604   0.04254   1.000
    C270    C    0.52724   0.22906   0.93744   1.000
    C271    C    0.52724   0.22906   0.43743   1.000
    C272    C    0.63286   0.24789   0.51527   1.000
    C273    C    0.63286   0.24789   0.01526   1.000
    C274    C    0.43548   0.11014   0.49830   1.000
    C275    C    0.43548   0.11014   0.00000   1.000
    C276    C    0.46646   0.02132   0.97528   1.000
    C277    C    0.46646   0.02132   0.47527   1.000
    C278    C    0.81587   0.57730   0.89259   1.000
    C279    C    0.81588   0.57730   0.39258   1.000
    C280    C    0.89145   0.57422   0.51341   1.000
    C281    C    0.89145   0.57422   0.01341   1.000
    C282    C    0.77894   0.47051   0.96572   1.000
    C283    C    0.77893   0.47051   0.46571   1.000
    C284    C    0.75836   0.52369   0.85875   1.000
    C285    C    0.75836   0.52369   0.35874   1.000
    C286    C    0.99179   0.54743   0.99738   1.000
    C287    C    0.99179   0.54743   0.49737   1.000
    C288    C    0.00920   0.32597   0.74205   1.000
    C289    C    0.00919   0.32597   0.24204   1.000
    C290    C    0.10251   0.22534   0.69920   1.000
    C291    C    0.10251   0.22533   0.19919   1.000
    C292    C    0.97326   0.03171   0.75265   1.000
    C293    C    0.97326   0.03170   0.25265   1.000
    C294    C    0.23565   0.04291   0.65455   1.000
    C295    C    0.23565   0.04291   0.15453   1.000
    C296    C    0.32819   0.95720   0.70987   1.000
    C297    C    0.32819   0.95720   0.20986   1.000
    C298    C    0.49107   0.82609   0.00728   1.000
    C299    C    0.49107   0.82609   0.50727   1.000
    C300    C    0.39749   0.72553   0.55054   1.000
    C301    C    0.39749   0.72553   0.05053   1.000
    C302    C    0.52647   0.53195   0.99735   1.000
    C303    C    0.52646   0.53195   0.49734   1.000
    C304    C    0.26393   0.54301   0.59515   1.000
    C305    C    0.26393   0.54301   0.09514   1.000
    C306    C    0.17167   0.45706   0.53956   1.000
    C307    C    0.17167   0.45707   0.03955   1.000
    C308    C    0.99078   0.67405   0.75794   1.000
    C309    C    0.99078   0.67404   0.25793   1.000
    C310    C    0.89746   0.77467   0.80079   1.000
    C311    C    0.89745   0.77467   0.30078   1.000
    C312    C    0.02672   0.96831   0.74733   1.000
    C313    C    0.02672   0.96831   0.24732   1.000
    C314    C    0.76431   0.95709   0.84545   1.000
    C315    C    0.76431   0.95709   0.34544   1.000
    C316    C    0.67177   0.04280   0.79012   1.000
    C317    C    0.67177   0.04280   0.29011   1.000
    C318    C    0.50890   0.17392   0.49272   1.000
    C319    C    0.50890   0.17392   0.00000   1.000
    C320    C    0.60248   0.27447   0.94946   1.000
    C321    C    0.60248   0.27447   0.44945   1.000
    C322    C    0.47351   0.46805   0.50264   1.000
    C323    C    0.47350   0.46806   0.00264   1.000
    C324    C    0.73603   0.45699   0.90484   1.000
    C325    C    0.73603   0.45699   0.40483   1.000
    C326    C    0.82829   0.54294   0.96043   1.000
    C327    C    0.82829   0.54294   0.46042   1.000
    C328    C    0.09793   0.15238   0.54467   1.000
    C329    C    0.09793   0.15238   0.04466   1.000
    C330    C    0.78250   0.26763   0.85043   1.000
    C331    C    0.78250   0.26763   0.35042   1.000
    C332    C    0.83186   0.29506   0.96204   1.000
    C333    C    0.83187   0.29507   0.46202   1.000
    C334    C    0.18960   0.06952   0.97143   1.000
    C335    C    0.18959   0.06951   0.47142   1.000
    C336    C    0.40192   0.65185   0.70512   1.000
    C337    C    0.40192   0.65185   0.20511   1.000
    C338    C    0.71705   0.76792   0.89945   1.000
    C339    C    0.71704   0.76792   0.39944   1.000
    C340    C    0.66806   0.79527   0.78771   1.000
    C341    C    0.66805   0.79528   0.28771   1.000
    C342    C    0.30940   0.56961   0.77856   1.000
    C343    C    0.30940   0.56962   0.27856   1.000
    C344    C    0.90204   0.84763   0.95532   1.000
    C345    C    0.90204   0.84762   0.45531   1.000
    C346    C    0.21746   0.73236   0.64957   1.000
    C347    C    0.21747   0.73237   0.14956   1.000
    C348    C    0.16810   0.70493   0.53796   1.000
    C349    C    0.16811   0.70494   0.03795   1.000
    C350    C    0.81036   0.93046   0.52857   1.000
    C351    C    0.81036   0.93047   0.02856   1.000
    C352    C    0.59805   0.34814   0.79487   1.000
    C353    C    0.59805   0.34814   0.29486   1.000
    C354    C    0.28292   0.23208   0.60055   1.000
    C355    C    0.28292   0.23208   0.10054   1.000
    C356    C    0.33192   0.20472   0.71228   1.000
    C357    C    0.33192   0.20472   0.21227   1.000
    C358    C    0.69057   0.43038   0.72143   1.000
    C359    C    0.69057   0.43038   0.22142   1.000
    O360    O    0.47219   0.14203   0.00000   1.000
    O361    O    0.42119   0.11019   0.02722   1.000
    O362    O    0.40751   0.12074   0.98269   1.000
    O363    O    0.45097   0.06573   0.98764   1.000
    O364    O    0.10823   0.13198   0.02233   1.000
    O365    O    0.08262   0.11587   0.96459   1.000
    O366    O    0.15406   0.09055   0.98571   1.000
    O367    O    0.54209   0.17998   0.02127   1.000
    O368    O    0.51807   0.20149   0.96872   1.000
    O369    O    0.97532   0.19919   0.96994   1.000
    O370    O    0.52778   0.85797   0.00449   1.000
    O371    O    0.54901   0.93427   0.01320   1.000
    O372    O    0.59247   0.87926   0.01816   1.000
    O373    O    0.57878   0.88981   0.97362   1.000
    O374    O    0.99673   0.44117   0.02975   1.000
    O375    O    0.98693   0.43534   0.98381   1.000
    O376    O    0.05834   0.43918   0.99459   1.000
    O377    O    0.99998   0.50000   0.99999   1.000
    O378    O    0.47755   0.44405   0.03456   1.000
    O379    O    0.49998   0.50000   0.99999   1.000
    O380    O    0.48190   0.79851   0.03491   1.000
    O381    O    0.45789   0.82002   0.98236   1.000
    O382    O    0.02465   0.80081   0.03563   1.000
    O383    O    0.77850   0.44974   0.98886   1.000
    O384    O    0.88892   0.60869   0.01371   1.000
    O385    O    0.87855   0.56263   0.04007   1.000
    O386    O    0.85987   0.55858   0.98692   1.000
    O387    O    0.94162   0.56082   0.00539   1.000
    O388    O    0.66374   0.26082   0.02593   1.000
    O389    O    0.60407   0.21697   0.02890   1.000
    O390    O    0.61767   0.26118   0.98236   1.000
    O391    O    0.84591   0.90944   0.02193   1.000
    O392    O    0.91735   0.88413   0.04305   1.000
    O393    O    0.89175   0.86802   0.98531   1.000
    O394    O    0.56532   0.99735   0.02541   1.000
    O395    O    0.51800   0.97762   0.05253   1.000
    O396    O    0.49999   0.00000   0.99999   1.000
    O397    O    0.19635   0.49328   0.03691   1.000
    O398    O    0.24248   0.53625   0.06470   1.000
    O399    O    0.22146   0.55027   0.01112   1.000
    O400    O    0.01303   0.56467   0.01618   1.000
    O401    O    0.38914   0.35310   0.05667   1.000
    O402    O    0.16537   0.72408   0.06760   1.000
    O403    O    0.17788   0.43988   0.07347   1.000
    O404    O    0.14009   0.44143   0.01307   1.000
    O405    O    0.57463   0.16873   0.06768   1.000
    O406    O    0.13874   0.15260   0.08488   1.000
    O407    O    0.43511   0.74824   0.05654   1.000
    O408    O    0.35891   0.68921   0.08765   1.000
    O409    O    0.38230   0.73883   0.01763   1.000
    O410    O    0.24517   0.97558   0.08135   1.000
    O411    O    0.98810   0.84979   0.06545   1.000
    O412    O    0.05577   0.81365   0.08567   1.000
    O413    O    0.49352   0.76783   0.08582   1.000
    O414    O    0.44812   0.38866   0.07163   1.000
    O415    O    0.51536   0.42537   0.09197   1.000
    O416    O    0.95233   0.90523   0.10164   1.000
    O417    O    0.41321   0.33236   0.10787   1.000
    O418    O    0.29213   0.59795   0.10996   1.000
    O419    O    0.25277   0.50966   0.11819   1.000
    O420    O    0.12561   0.77540   0.10425   1.000
    O421    O    0.19005   0.73780   0.12340   1.000
    O422    O    0.23123   0.19245   0.11282   1.000
    O423    O    0.31027   0.23754   0.12674   1.000
    O424    O    0.16963   0.39254   0.11535   1.000
    O425    O    0.21285   0.44951   0.12431   1.000
    O426    O    0.28741   0.95006   0.12493   1.000
    O427    O    0.24711   0.00985   0.13132   1.000
    O428    O    0.57560   0.45469   0.11323   1.000
    O429    O    0.08717   0.83255   0.14230   1.000
    O430    O    0.54820   0.40537   0.14834   1.000
    O431    O    0.26889   0.69263   0.13716   1.000
    O432    O    0.36112   0.65237   0.16494   1.000
    O433    O    0.20760   0.09786   0.13982   1.000
    O434    O    0.14102   0.18907   0.16215   1.000
    O435    O    0.33094   0.89336   0.13366   1.000
    O436    O    0.92499   0.95454   0.13664   1.000
    O437    O    0.98511   0.92537   0.15801   1.000
    O438    O    0.37470   0.27521   0.14595   1.000
    O439    O    0.44461   0.31362   0.16451   1.000
    O440    O    0.01367   0.26725   0.16377   1.000
    O441    O    0.25510   0.47497   0.16794   1.000
    O442    O    0.32222   0.94027   0.17581   1.000
    O443    O    0.33477   0.22386   0.18261   1.000
    O444    O    0.25701   0.03605   0.18500   1.000
    O445    O    0.92492   0.66830   0.18304   1.000
    O446    O    0.98297   0.47771   0.19717   1.000
    O447    O    0.05228   0.88883   0.17844   1.000
    O448    O    0.11123   0.85343   0.19348   1.000
    O449    O    0.51236   0.34992   0.18465   1.000
    O450    O    0.58319   0.38434   0.20700   1.000
    O451    O    0.02277   0.94422   0.21543   1.000
    O452    O    0.62183   0.06274   0.21038   1.000
    O453    O    0.06492   0.24794   0.19310   1.000
    O454    O    0.01826   0.29825   0.21452   1.000
    O455    O    0.47574   0.30091   0.21457   1.000
    O456    O    0.50304   0.94137   0.21997   1.000
    O457    O    0.07883   0.61074   0.22465   1.000
    O458    O    0.11778   0.23884   0.23202   1.000
    O459    O    0.39139   0.63160   0.23516   1.000
    O460    O    0.89565   0.71672   0.22161   1.000
    O461    O    0.95757   0.67991   0.23301   1.000
    O462    O    0.30328   0.99320   0.21266   1.000
    O463    O    0.35964   0.94148   0.23639   1.000
    O464    O    0.83605   0.76048   0.22443   1.000
    O465    O    0.90806   0.37895   0.23060   1.000
    O466    O    0.48725   0.06479   0.23406   1.000
    O467    O    0.27768   0.04974   0.23875   1.000
    O468    O    0.65484   0.40951   0.22809   1.000
    O469    O    0.93516   0.49709   0.22386   1.000
    O470    O    0.95139   0.43406   0.23610   1.000
    O471    O    0.99998   0.50001   0.24999   1.000
    O472    O    0.60858   0.36839   0.26481   1.000
    O473    O    0.88219   0.76117   0.26795   1.000
    O474    O    0.61153   0.10871   0.23681   1.000
    O475    O    0.55863   0.06082   0.24493   1.000
    O476    O    0.64032   0.05852   0.26358   1.000
    O477    O    0.72228   0.95026   0.26122   1.000
    O478    O    0.97249   0.35775   0.24469   1.000
    O479    O    0.04239   0.32010   0.26696   1.000
    O480    O    0.49998   0.00000   0.24999   1.000
    O481    O    0.44133   0.93918   0.25504   1.000
    O482    O    0.51271   0.93521   0.26591   1.000
    O483    O    0.99999   0.00000   0.24998   1.000
    O484    O    0.92114   0.38927   0.27532   1.000
    O485    O    0.02748   0.64226   0.25528   1.000
    O486    O    0.04858   0.56595   0.26387   1.000
    O487    O    0.09191   0.62106   0.26937   1.000
    O488    O    0.97721   0.05579   0.28454   1.000
    O489    O    0.49692   0.05864   0.28000   1.000
    O490    O    0.98170   0.70176   0.28545   1.000
    O491    O    0.52423   0.69909   0.28540   1.000
    O492    O    0.38843   0.89130   0.26316   1.000
    O493    O    0.37813   0.93726   0.28959   1.000
    O494    O    0.16392   0.23953   0.27554   1.000
    O495    O    0.10432   0.28329   0.27836   1.000
    O496    O    0.34513   0.59049   0.27189   1.000
    O497    O    0.41678   0.61565   0.29298   1.000
    O498    O    0.06481   0.50292   0.27611   1.000
    O499    O    0.01700   0.52230   0.30280   1.000
    O500    O    0.69668   0.00680   0.28731   1.000
    O501    O    0.74295   0.96395   0.31498   1.000
    O502    O    0.88873   0.14657   0.30649   1.000
    O503    O    0.66520   0.77614   0.31737   1.000
    O504    O    0.67774   0.05974   0.32416   1.000
    O505    O    0.07506   0.33171   0.31692   1.000
    O506    O    0.63885   0.34762   0.33503   1.000
    O507    O    0.93504   0.75207   0.30687   1.000
    O508    O    0.85894   0.81093   0.33783   1.000
    O509    O    0.74486   0.52503   0.33204   1.000
    O510    O    0.48761   0.65008   0.31533   1.000
    O511    O    0.55536   0.68638   0.33546   1.000
    O512    O    0.99345   0.73275   0.33620   1.000
    O513    O    0.94769   0.11117   0.32153   1.000
    O514    O    0.01486   0.07463   0.34196   1.000
    O515    O    0.45177   0.59462   0.35163   1.000
    O516    O    0.91280   0.16744   0.35767   1.000
    O517    O    0.79237   0.90213   0.36016   1.000
    O518    O    0.75285   0.99015   0.36865   1.000
    O519    O    0.62527   0.72478   0.35403   1.000
    O520    O    0.68970   0.76246   0.37324   1.000
    O521    O    0.73107   0.30737   0.36281   1.000
    O522    O    0.80991   0.26220   0.37658   1.000
    O523    O    0.66903   0.10665   0.36631   1.000
    O524    O    0.71256   0.04995   0.37504   1.000
    O525    O    0.78712   0.55049   0.37566   1.000
    O526    O    0.74719   0.49034   0.38179   1.000
    O527    O    0.07498   0.04546   0.36333   1.000
    O528    O    0.58676   0.66764   0.39211   1.000
    O529    O    0.04764   0.09477   0.39833   1.000
    O530    O    0.76874   0.80755   0.38716   1.000
    O531    O    0.86123   0.84740   0.41509   1.000
    O532    O    0.70784   0.40205   0.39002   1.000
    O533    O    0.64106   0.31079   0.41233   1.000
    O534    O    0.83033   0.60746   0.38462   1.000
    O535    O    0.42437   0.54531   0.38675   1.000
    O536    O    0.48460   0.57462   0.40801   1.000
    O537    O    0.87435   0.22459   0.39573   1.000
    O538    O    0.94419   0.18634   0.41430   1.000
    O539    O    0.50645   0.23217   0.41416   1.000
    O540    O    0.75480   0.02442   0.41862   1.000
    O541    O    0.82208   0.56012   0.42650   1.000
    O542    O    0.83460   0.27592   0.43238   1.000
    O543    O    0.75748   0.46375   0.43527   1.000
    O544    O    0.42534   0.83127   0.43230   1.000
    O545    O    0.48198   0.02239   0.44745   1.000
    O546    O    0.55185   0.61134   0.42834   1.000
    O547    O    0.61083   0.64689   0.44330   1.000
    O548    O    0.01187   0.15020   0.43453   1.000
    O549    O    0.08261   0.11586   0.45694   1.000
    O550    O    0.12140   0.43737   0.45990   1.000
    O551    O    0.52242   0.55596   0.46542   1.000
    O552    O    0.56486   0.25177   0.44344   1.000
    O553    O    0.51807   0.20149   0.46508   1.000
    O554    O    0.97531   0.19918   0.46435   1.000
    O555    O    0.00323   0.55884   0.47022   1.000
    O556    O    0.57878   0.88981   0.47361   1.000
    O557    O    0.61767   0.26118   0.48236   1.000
    O558    O    0.89175   0.86802   0.48530   1.000
    O559    O    0.39590   0.78304   0.47108   1.000
    O560    O    0.45789   0.82002   0.48236   1.000
    O561    O    0.80361   0.50672   0.46307   1.000
    O562    O    0.85987   0.55858   0.48692   1.000
    O563    O    0.33623   0.73918   0.47405   1.000
    O564    O    0.98693   0.43534   0.48381   1.000
    O565    O    0.40751   0.12074   0.48183   1.000
    O566    O    0.77850   0.44974   0.48886   1.000
    O567    O    0.15405   0.09055   0.47806   1.000
    O568    O    0.43466   0.00265   0.47457   1.000
    O569    O    0.45097   0.06573   0.48679   1.000
    O570    O    0.49999   0.00000   0.49999   1.000
    O571    O    0.10822   0.13198   0.51468   1.000
    O572    O    0.38230   0.73882   0.51763   1.000
    O573    O    0.11103   0.39132   0.48627   1.000
    O574    O    0.05834   0.43918   0.49459   1.000
    O575    O    0.14009   0.44142   0.51307   1.000
    O576    O    0.22146   0.55027   0.51112   1.000
    O577    O    0.47219   0.14203   0.49551   1.000
    O578    O    0.54209   0.17998   0.51763   1.000
    O579    O    0.49998   0.50000   0.49999   1.000
    O580    O    0.99998   0.50000   0.49999   1.000
    O581    O    0.94162   0.56082   0.50539   1.000
    O582    O    0.01303   0.56467   0.51618   1.000
    O583    O    0.42119   0.11019   0.52638   1.000
    O584    O    0.52778   0.85797   0.50448   1.000
    O585    O    0.54901   0.93427   0.51320   1.000
    O586    O    0.59247   0.87926   0.51816   1.000
    O587    O    0.99673   0.44117   0.52976   1.000
    O588    O    0.47755   0.44404   0.53457   1.000
    O589    O    0.48190   0.79851   0.53491   1.000
    O590    O    0.02465   0.80082   0.53563   1.000
    O591    O    0.88892   0.60869   0.51372   1.000
    O592    O    0.87855   0.56263   0.54008   1.000
    O593    O    0.66374   0.26082   0.52594   1.000
    O594    O    0.60407   0.21697   0.52891   1.000
    O595    O    0.84591   0.90944   0.52193   1.000
    O596    O    0.91735   0.88414   0.54304   1.000
    O597    O    0.56532   0.99735   0.52542   1.000
    O598    O    0.51800   0.97762   0.55254   1.000
    O599    O    0.19635   0.49328   0.53692   1.000
    O600    O    0.24248   0.53625   0.56471   1.000
    O601    O    0.38913   0.35311   0.55668   1.000
    O602    O    0.16537   0.72408   0.56761   1.000
    O603    O    0.17788   0.43988   0.57348   1.000
    O604    O    0.57463   0.16873   0.56769   1.000
    O605    O    0.13874   0.15260   0.58489   1.000
    O606    O    0.43511   0.74824   0.55655   1.000
    O607    O    0.35890   0.68921   0.58766   1.000
    O608    O    0.24517   0.97558   0.58136   1.000
    O609    O    0.98810   0.84980   0.56545   1.000
    O610    O    0.05578   0.81366   0.58568   1.000
    O611    O    0.49352   0.76783   0.58583   1.000
    O612    O    0.44812   0.38866   0.57164   1.000
    O613    O    0.51536   0.42537   0.59198   1.000
    O614    O    0.95233   0.90524   0.60165   1.000
    O615    O    0.41321   0.33236   0.60788   1.000
    O616    O    0.29213   0.59795   0.60997   1.000
    O617    O    0.25277   0.50966   0.61820   1.000
    O618    O    0.12562   0.77541   0.60426   1.000
    O619    O    0.19005   0.73780   0.62341   1.000
    O620    O    0.23123   0.19245   0.61283   1.000
    O621    O    0.31027   0.23753   0.62675   1.000
    O622    O    0.16963   0.39254   0.61536   1.000
    O623    O    0.21285   0.44950   0.62432   1.000
    O624    O    0.28741   0.95006   0.62495   1.000
    O625    O    0.24711   0.00985   0.63133   1.000
    O626    O    0.57560   0.45469   0.61324   1.000
    O627    O    0.08717   0.83255   0.64231   1.000
    O628    O    0.54820   0.40538   0.64835   1.000
    O629    O    0.26889   0.69263   0.63717   1.000
    O630    O    0.36112   0.65237   0.66495   1.000
    O631    O    0.20760   0.09786   0.63983   1.000
    O632    O    0.14103   0.18908   0.66216   1.000
    O633    O    0.33094   0.89336   0.63367   1.000
    O634    O    0.92499   0.95455   0.63665   1.000
    O635    O    0.98511   0.92537   0.65802   1.000
    O636    O    0.37470   0.27521   0.64596   1.000
    O637    O    0.44461   0.31362   0.66452   1.000
    O638    O    0.01367   0.26725   0.66378   1.000
    O639    O    0.25511   0.47496   0.66795   1.000
    O640    O    0.32222   0.94027   0.67583   1.000
    O641    O    0.33477   0.22385   0.68262   1.000
    O642    O    0.25701   0.03605   0.68501   1.000
    O643    O    0.92492   0.66830   0.68306   1.000
    O644    O    0.98298   0.47771   0.69718   1.000
    O645    O    0.05228   0.88883   0.67845   1.000
    O646    O    0.11124   0.85343   0.69349   1.000
    O647    O    0.51236   0.34992   0.68466   1.000
    O648    O    0.58319   0.38434   0.70701   1.000
    O649    O    0.02276   0.94422   0.71543   1.000
    O650    O    0.62183   0.06275   0.71040   1.000
    O651    O    0.06493   0.24794   0.69311   1.000
    O652    O    0.01827   0.29825   0.71454   1.000
    O653    O    0.47575   0.30091   0.71458   1.000
    O654    O    0.50304   0.94137   0.71998   1.000
    O655    O    0.07883   0.61074   0.72467   1.000
    O656    O    0.11778   0.23884   0.73203   1.000
    O657    O    0.39139   0.63160   0.73517   1.000
    O658    O    0.89565   0.71672   0.72162   1.000
    O659    O    0.95758   0.67991   0.73303   1.000
    O660    O    0.30328   0.99320   0.71267   1.000
    O661    O    0.35964   0.94149   0.73641   1.000
    O662    O    0.83605   0.76048   0.72444   1.000
    O663    O    0.90806   0.37895   0.73062   1.000
    O664    O    0.48725   0.06479   0.73408   1.000
    O665    O    0.27767   0.04974   0.73877   1.000
    O666    O    0.65484   0.40951   0.72810   1.000
    O667    O    0.93516   0.49710   0.72388   1.000
    O668    O    0.95139   0.43406   0.73611   1.000
    O669    O    0.99999   0.50001   0.75000   1.000
    O670    O    0.60858   0.36839   0.76482   1.000
    O671    O    0.88219   0.76117   0.76796   1.000
    O672    O    0.61153   0.10871   0.73683   1.000
    O673    O    0.55863   0.06082   0.74495   1.000
    O674    O    0.64033   0.05852   0.76359   1.000
    O675    O    0.72228   0.95026   0.76123   1.000
    O676    O    0.97250   0.35775   0.74470   1.000
    O677    O    0.04240   0.32011   0.76697   1.000
    O678    O    0.49998   0.00001   0.75000   1.000
    O679    O    0.44133   0.93919   0.75505   1.000
    O680    O    0.51271   0.93522   0.76592   1.000
    O681    O    0.99999   0.00001   0.74999   1.000
    O682    O    0.92115   0.38928   0.77533   1.000
    O683    O    0.02748   0.64226   0.75529   1.000
    O684    O    0.04859   0.56595   0.76389   1.000
    O685    O    0.09191   0.62107   0.76938   1.000
    O686    O    0.97721   0.05579   0.78455   1.000
    O687    O    0.49692   0.05864   0.78002   1.000
    O688    O    0.98171   0.70176   0.78546   1.000
    O689    O    0.52422   0.69909   0.78541   1.000
    O690    O    0.38843   0.89130   0.76317   1.000
    O691    O    0.37813   0.93726   0.78960   1.000
    O692    O    0.16393   0.23953   0.77554   1.000
    O693    O    0.10433   0.28330   0.77837   1.000
    O694    O    0.34514   0.59048   0.77189   1.000
    O695    O    0.41678   0.61566   0.79299   1.000
    O696    O    0.06482   0.50292   0.77612   1.000
    O697    O    0.01700   0.52231   0.80281   1.000
    O698    O    0.69668   0.00680   0.78733   1.000
    O699    O    0.74295   0.96395   0.81499   1.000
    O700    O    0.88874   0.14658   0.80649   1.000
    O701    O    0.66520   0.77614   0.81738   1.000
    O702    O    0.67775   0.05974   0.82417   1.000
    O703    O    0.07506   0.33172   0.81693   1.000
    O704    O    0.63885   0.34762   0.83504   1.000
    O705    O    0.93504   0.75207   0.80688   1.000
    O706    O    0.85894   0.81093   0.83784   1.000
    O707    O    0.74486   0.52503   0.83205   1.000
    O708    O    0.48760   0.65009   0.81534   1.000
    O709    O    0.55535   0.68639   0.83548   1.000
    O710    O    0.99345   0.73276   0.83622   1.000
    O711    O    0.94770   0.11118   0.82153   1.000
    O712    O    0.01486   0.07464   0.84196   1.000
    O713    O    0.45176   0.59463   0.85165   1.000
    O714    O    0.91281   0.16746   0.85767   1.000
    O715    O    0.79237   0.90213   0.86017   1.000
    O716    O    0.75286   0.99016   0.86866   1.000
    O717    O    0.62527   0.72479   0.85404   1.000
    O718    O    0.68970   0.76246   0.87325   1.000
    O719    O    0.73108   0.30737   0.86282   1.000
    O720    O    0.80992   0.26220   0.87658   1.000
    O721    O    0.66904   0.10665   0.86632   1.000
    O722    O    0.71256   0.04995   0.87505   1.000
    O723    O    0.78711   0.55049   0.87567   1.000
    O724    O    0.74719   0.49034   0.88180   1.000
    O725    O    0.07499   0.04546   0.86333   1.000
    O726    O    0.58675   0.66765   0.89212   1.000
    O727    O    0.04764   0.09477   0.89833   1.000
    O728    O    0.76874   0.80755   0.88717   1.000
    O729    O    0.86123   0.84740   0.91510   1.000
    O730    O    0.70784   0.40205   0.89003   1.000
    O731    O    0.64106   0.31079   0.91234   1.000
    O732    O    0.83033   0.60746   0.88464   1.000
    O733    O    0.42437   0.54532   0.88676   1.000
    O734    O    0.48460   0.57463   0.90802   1.000
    O735    O    0.87436   0.22460   0.89573   1.000
    O736    O    0.94421   0.18635   0.91430   1.000
    O737    O    0.50645   0.23217   0.91417   1.000
    O738    O    0.75480   0.02442   0.91863   1.000
    O739    O    0.82208   0.56012   0.92651   1.000
    O740    O    0.83460   0.27591   0.93239   1.000
    O741    O    0.75749   0.46375   0.93528   1.000
    O742    O    0.42534   0.83127   0.93230   1.000
    O743    O    0.48198   0.02239   0.94745   1.000
    O744    O    0.55184   0.61134   0.92835   1.000
    O745    O    0.61083   0.64690   0.94332   1.000
    O746    O    0.01188   0.15021   0.93453   1.000
    O747    O    0.12141   0.43737   0.95991   1.000
    O748    O    0.52242   0.55596   0.96542   1.000
    O749    O    0.56486   0.25177   0.94345   1.000
    O750    O    0.00323   0.55884   0.97023   1.000
    O751    O    0.39590   0.78304   0.97109   1.000
    O752    O    0.80361   0.50672   0.96308   1.000
    O753    O    0.33623   0.73918   0.97406   1.000
    O754    O    0.43466   0.00265   0.97458   1.000
    O755    O    0.11104   0.39132   0.98627   1.000
loop_
    _geom_bond_atom_site_label_1
    _geom_bond_atom_site_label_2
    _geom_bond_distance
    _geom_bond_site_symmetry_2
    _ccdc_geom_bond_type
    C275   O360      0.73623      .   S
    C319   O360      0.73623      .   S
    C275   O361      0.53437      .   S
    C123   O361      0.53437      .   S
    C275   O362      0.55804  1_554   S
    C124   O362      0.55804      .   S
    C275   O363      0.77268  1_554   S
    C276   O363      0.77268      .   S
    C151   O364      0.54029      .   S
    C329   O364      0.54029      .   S
    C151   O365      0.86301  1_554   S
    C146   O365      0.86301      .   S
    C151   O366      0.65968  1_554   S
    C334   O366      0.65968      .   S
    C319   O367      0.64680      .   S
    C269   O367      0.64680      .   S
    C319   O368      0.73238  1_554   S
    C270   O368      0.73238      .   S
    C9     O369      0.63186  1_554   S
    C144   O369      0.63186      .   S
    C202   O370      0.73598      .   S
    C298   O370      0.73598      .   S
    C202   O371      0.76840      .   S
    C205   O371      0.76840      .   S
    C202   O372      0.54847      .   S
    C57    O372      0.54847      .   S
    C202   O373      0.54898  1_554   S
    C54    O373      0.54898      .   S
    C215   O374      0.55110  1_455   S
    C75    O374      0.55110      .   S
    C215   O375      0.55075  1_454   S
    C72    O375      0.55075      .   S
    C215   O376      0.76787  1_554   S
    C208   O376      0.76787      .   S
    C215   O377      0.76578  1_454   S
    C286   O377      0.76578      .   S
    C323   O378      0.70859      .   S
    C267   O378      0.70859      .   S
    C323   O379      0.63759  1_554   S
    C302   O379      0.63759      .   S
    C298   O380      0.68108      .   S
    C199   O380      0.68108      .   S
    C298   O381      0.69250  1_554   S
    C196   O381      0.69250      .   S
    C76    O382      0.54322      .   S
    C217   O382      0.54322      .   S
    C137   O383      0.54056  1_554   S
    C282   O383      0.54056      .   S
    C281   O384      0.54951      .   S
    C133   O384      0.54951      .   S
    C281   O385      0.54993      .   S
    C135   O385      0.54993      .   S
    C281   O386      0.73346  1_554   S
    C326   O386      0.73346      .   S
    C281   O387      0.76787      .   S
    C286   O387      0.76787  1_556   S
    C273   O388      0.54110      .   S
    C121   O388      0.54110      .   S
    C273   O389      0.68485      .   S
    C269   O389      0.68485      .   S
    C273   O390      0.69222  1_554   S
    C320   O390      0.69222      .   S
    C222   O391      0.62317      .   S
    C351   O391      0.62317      .   S
    C222   O392      0.75569      .   S
    C219   O392      0.75569      .   S
    C222   O393      0.65329  1_554   S
    C344   O393      0.65329      .   S
    C205   O394      0.55039      .   S
    C61    O394      0.55039  1_545   S
    C205   O395      0.55109      .   S
    C59    O395      0.55109      .   S
    C205   O396      0.76639  1_564   S
    C276   O396      0.76640      .   S
    C211   O397      0.67870      .   S
    C307   O397      0.67870      .   S
    C211   O398      0.66759      .   S
    C305   O398      0.66759      .   S
    C211   O399      0.54055      .   S
    C68    O399      0.54055  1_556   S
    C141   O400      0.55075      .   S
    C286   O400      0.55075  1_656   S
    C115   O401      0.54398      .   S
    C265   O401      0.54398      .   S
    C349   O402      0.62702      .   S
    C221   O402      0.62702      .   S
    C307   O403      0.69504      .   S
    C207   O403      0.69504      .   S
    C307   O404      0.73346      .   S
    C208   O404      0.73346  1_556   S
    C269   O405      0.54028      .   S
    C117   O405      0.54028      .   S
    C329   O406      0.97750      .   S
    C1     O406      0.97750      .   S
    C301   O407      0.66995      .   S
    C199   O407      0.66995      .   S
    C301   O408      1.03808      .   S
    C3     O408      1.03808      .   S
    C301   O409      0.69222      .   S
    C200   O409      0.69222  1_556   S
    C37    O410      0.54223      .   S
    C177   O410      0.54223      .   S
    C217   O411      0.70084  1_455   S
    C219   O411      0.70084      .   S
    C217   O412      0.69760      .   S
    C225   O412      0.69760      .   S
    C199   O413      0.54211      .   S
    C51    O413      0.54211      .   S
    C267   O414      0.69980      .   S
    C265   O414      0.69980      .   S
    C267   O415      0.70466      .   S
    C263   O415      0.70466      .   S
    C219   O416      0.69877      .   S
    C227   O416      0.69877      .   S
    C265   O417      0.69794      .   S
    C261   O417      0.69794      .   S
    C305   O418      1.00918      .   S
    C3     O418      1.00918      .   S
    C305   O419      0.69397      .   S
    C213   O419      0.69397      .   S
    C221   O420      0.74995      .   S
    C225   O420      0.74995      .   S
    C221   O421      0.64988      .   S
    C347   O421      0.64988      .   S
    C355   O422      0.99743      .   S
    C1     O422      0.99743      .   S
    C355   O423      0.64988      .   S
    C257   O423      0.64988      .   S
    C207   O424      0.54068      .   S
    C63    O424      0.54068      .   S
    C207   O425      0.68481      .   S
    C213   O425      0.68481      .   S
    C177   O426      0.68478      .   S
    C171   O426      0.68478      .   S
    C177   O427      0.69394  1_565   S
    C295   O427      0.69394      .   S
    C113   O428      0.54422      .   S
    C263   O428      0.54422      .   S
    C225   O429      0.69809      .   S
    C229   O429      0.69809      .   S
    C263   O430      0.69886      .   S
    C255   O430      0.69886      .   S
    C3     O431      0.99774      .   S
    C347   O431      0.99774      .   S
    C3     O432      0.97675      .   S
    C337   O432      0.97675      .   S
    C1     O433      1.00906      .   S
    C295   O433      1.00906      .   S
    C1     O434      1.03733      .   S
    C291   O434      1.03733      .   S
    C29    O435      0.54069      .   S
    C171   O435      0.54069      .   S
    C227   O436      0.54419      .   S
    C79    O436      0.54419      .   S
    C227   O437      0.70444      .   S
    C231   O437      0.70444  1_455   S
    C261   O438      0.74974      .   S
    C257   O438      0.74974      .   S
    C261   O439      0.69753      .   S
    C253   O439      0.69753      .   S
    C17    O440      0.48653      .   S
    C163   O440      0.48653      .   S
    C213   O441      0.54220      .   S
    C71    O441      0.54220      .   S
    C171   O442      0.69508      .   S
    C297   O442      0.69508      .   S
    C257   O443      0.62694      .   S
    C357   O443      0.62694      .   S
    C295   O444      0.66759      .   S
    C175   O444      0.66759      .   S
    C83    O445      0.54025      .   S
    C233   O445      0.54025      .   S
    C25    O446      0.55111      .   S
    C169   O446      0.55111      .   S
    C229   O447      0.69998      .   S
    C231   O447      0.69998      .   S
    C229   O448      0.54402      .   S
    C81    O448      0.54402      .   S
    C255   O449      0.70104      .   S
    C253   O449      0.70104      .   S
    C255   O450      0.75596      .   S
    C259   O450      0.75596      .   S
    C231   O451      0.70866      .   S
    C313   O451      0.70866      .   S
    C101   O452      0.54992      .   S
    C245   O452      0.54992      .   S
    C163   O453      0.66993      .   S
    C291   O453      0.66993      .   S
    C163   O454      0.68114      .   S
    C289   O454      0.68114      .   S
    C253   O455      0.54334      .   S
    C111   O455      0.54334      .   S
    C41    O456      0.55118      .   S
    C179   O456      0.55118      .   S
    C89    O457      0.54900      .   S
    C239   O457      0.54900      .   S
    C291   O458      0.69236      .   S
    C165   O458      0.69236      .   S
    C337   O459      0.65335      .   S
    C187   O459      0.65335      .   S
    C233   O460      0.68484      .   S
    C237   O460      0.68484      .   S
    C233   O461      0.69253      .   S
    C309   O461      0.69253      .   S
    C297   O462      0.67873      .   S
    C175   O462      0.67873  1_545   S
    C297   O463      0.73360      .   S
    C173   O463      0.73360      .   S
    C87    O464      0.54113      .   S
    C237   O464      0.54113      .   S
    C23    O465      0.54855      .   S
    C167   O465      0.54855      .   S
    C107   O466      0.55098      .   S
    C251   O466      0.55098      .   S
    C175   O467      0.54069      .   S
    C35    O467      0.54069      .   S
    C359   O468      0.62322      .   S
    C259   O468      0.62322      .   S
    C27    O469      0.55038      .   S
    C169   O469      0.55038      .   S
    C169   O470      0.76854      .   S
    C167   O470      0.76854      .   S
    C169   O471      0.76640      .   S
    C241   O471      0.76640  1_455   S
    C259   O472      0.65335      .   S
    C353   O472      0.65335      .   S
    C237   O473      0.69236      .   S
    C311   O473      0.69236      .   S
    C99    O474      0.54954      .   S
    C245   O474      0.54954      .   S
    C245   O475      0.76797      .   S
    C251   O475      0.76797      .   S
    C245   O476      0.73361      .   S
    C317   O476      0.73361      .   S
    C103   O477      0.54068      .   S
    C247   O477      0.54068      .   S
    C289   O478      0.73584  1_455   S
    C167   O478      0.73584      .   S
    C289   O479      0.69253      .   S
    C161   O479      0.69253      .   S
    C179   O480      0.76582  1_565   S
    C251   O480      0.76582      .   S
    C179   O481      0.76797      .   S
    C173   O481      0.76797      .   S
    C179   O482      0.55098      .   S
    C39    O482      0.55098      .   S
    C313   O483      0.63766  1_465   S
    C293   O483      0.63766      .   S
    C167   O484      0.54900      .   S
    C21    O484      0.54900      .   S
    C239   O485      0.73584      .   S
    C309   O485      0.73584  1_655   S
    C239   O486      0.76854      .   S
    C241   O486      0.76854      .   S
    C239   O487      0.54855      .   S
    C91    O487      0.54855      .   S
    C293   O488      0.70867      .   S
    C159   O488      0.70867      .   S
    C251   O489      0.55118      .   S
    C109   O489      0.55118      .   S
    C309   O490      0.68113      .   S
    C235   O490      0.68113      .   S
    C43    O491      0.54334      .   S
    C181   O491      0.54334      .   S
    C173   O492      0.54954      .   S
    C31    O492      0.54954      .   S
    C173   O493      0.54993      .   S
    C33    O493      0.54993      .   S
    C165   O494      0.54112      .   S
    C19    O494      0.54112      .   S
    C165   O495      0.68483      .   S
    C161   O495      0.68483      .   S
    C187   O496      0.62322      .   S
    C343   O496      0.62322      .   S
    C187   O497      0.75595      .   S
    C183   O497      0.75595      .   S
    C241   O498      0.55038      .   S
    C95    O498      0.55038      .   S
    C241   O499      0.55110      .   S
    C93    O499      0.55110      .   S
    C247   O500      0.67873  1_565   S
    C317   O500      0.67873      .   S
    C247   O501      0.66760      .   S
    C315   O501      0.66760      .   S
    C13    O502      0.54402      .   S
    C157   O502      0.54402      .   S
    C341   O503      0.62693      .   S
    C185   O503      0.62693      .   S
    C317   O504      0.69508      .   S
    C243   O504      0.69508      .   S
    C161   O505      0.54025      .   S
    C15    O505      0.54025      .   S
    C353   O506      0.97677      .   S
    C7     O506      0.97677      .   S
    C311   O507      0.66992      .   S
    C235   O507      0.66992      .   S
    C311   O508      1.03733      .   S
    C5     O508      1.03733      .   S
    C139   O509      0.54219      .   S
    C285   O509      0.54219      .   S
    C181   O510      0.70104      .   S
    C183   O510      0.70104      .   S
    C181   O511      0.69753      .   S
    C189   O511      0.69753      .   S
    C235   O512      0.54211      .   S
    C85    O512      0.54211  1_455   S
    C159   O513      0.69997      .   S
    C157   O513      0.69997      .   S
    C159   O514      0.70444  1_655   S
    C155   O514      0.70444      .   S
    C183   O515      0.69886      .   S
    C191   O515      0.69886      .   S
    C157   O516      0.69809      .   S
    C153   O516      0.69809      .   S
    C315   O517      1.00911      .   S
    C5     O517      1.00911      .   S
    C315   O518      0.69394      .   S
    C249   O518      0.69394  1_545   S
    C185   O519      0.74974      .   S
    C189   O519      0.74974      .   S
    C185   O520      0.64988      .   S
    C339   O520      0.64988      .   S
    C331   O521      0.99772      .   S
    C7     O521      0.99772      .   S
    C331   O522      0.64988      .   S
    C149   O522      0.64988      .   S
    C243   O523      0.54068      .   S
    C97    O523      0.54068      .   S
    C243   O524      0.68478      .   S
    C249   O524      0.68478      .   S
    C285   O525      0.68482      .   S
    C279   O525      0.68482      .   S
    C285   O526      0.69397      .   S
    C325   O526      0.69397      .   S
    C11    O527      0.54419      .   S
    C155   O527      0.54419      .   S
    C189   O528      0.69794      .   S
    C193   O528      0.69794      .   S
    C155   O529      0.69877      .   S
    C147   O529      0.69877      .   S
    C5     O530      0.99743      .   S
    C339   O530      0.99743      .   S
    C5     O531      0.97746      .   S
    C345   O531      0.97746      .   S
    C7     O532      1.00918      .   S
    C325   O532      1.00918      .   S
    C7     O533      1.03806      .   S
    C321   O533      1.03806      .   S
    C131   O534      0.54068      .   S
    C279   O534      0.54068      .   S
    C191   O535      0.54422      .   S
    C45    O535      0.54422      .   S
    C191   O536      0.70466      .   S
    C195   O536      0.70466      .   S
    C153   O537      0.74994      .   S
    C149   O537      0.74994      .   S
    C153   O538      0.69761      .   S
    C145   O538      0.69761      .   S
    C119   O539      0.54210      .   S
    C271   O539      0.54210      .   S
    C249   O540      0.54223      .   S
    C105   O540      0.54223      .   S
    C279   O541      0.69504      .   S
    C327   O541      0.69504      .   S
    C149   O542      0.62701      .   S
    C333   O542      0.62701      .   S
    C325   O543      0.66759      .   S
    C283   O543      0.66759      .   S
    C49    O544      0.54028      .   S
    C197   O544      0.54028      .   S
    C127   O545      0.55109      .   S
    C277   O545      0.55109      .   S
    C193   O546      0.69980      .   S
    C195   O546      0.69980      .   S
    C193   O547      0.54397      .   S
    C47    O547      0.54397      .   S
    C147   O548      0.70084      .   S
    C145   O548      0.70084  1_655   S
    C147   O549      0.75580      .   S
    C150   O549      0.75580      .   S
    C67    O550      0.54993      .   S
    C209   O550      0.54993      .   S
    C195   O551      0.70858      .   S
    C303   O551      0.70858      .   S
    C271   O552      0.66995      .   S
    C321   O552      0.66995      .   S
    C271   O553      0.68119      .   S
    C318   O553      0.68119      .   S
    C145   O554      0.54335      .   S
    C8     O554      0.54335      .   S
    C143   O555      0.55110      .   S
    C287   O555      0.55110  1_655   S
    C55    O556      0.54898      .   S
    C203   O556      0.54898      .   S
    C321   O557      0.69235      .   S
    C272   O557      0.69235      .   S
    C345   O558      0.65329      .   S
    C223   O558      0.65329      .   S
    C197   O559      0.68485      .   S
    C201   O559      0.68485      .   S
    C197   O560      0.69250      .   S
    C299   O560      0.69250      .   S
    C327   O561      0.67869      .   S
    C283   O561      0.67869      .   S
    C327   O562      0.73357      .   S
    C280   O562      0.73357      .   S
    C53    O563      0.54110      .   S
    C201   O563      0.54110      .   S
    C73    O564      0.55086      .   S
    C214   O564      0.55086  1_455   S
    C125   O565      0.54856      .   S
    C274   O565      0.54856      .   S
    C283   O566      0.54067      .   S
    C136   O566      0.54067      .   S
    C335   O567      0.62320      .   S
    C150   O567      0.62320      .   S
    C129   O568      0.55039  1_565   S
    C277   O568      0.55039      .   S
    C277   O569      0.76844      .   S
    C274   O569      0.76844      .   S
    C277   O570      0.76649      .   S
    C204   O570      0.76650  1_565   S
    C150   O571      0.65329      .   S
    C328   O571      0.65329      .   S
    C201   O572      0.69235      .   S
    C300   O572      0.69235      .   S
    C65    O573      0.54951      .   S
    C209   O573      0.54951      .   S
    C209   O574      0.76789      .   S
    C214   O574      0.76789      .   S
    C209   O575      0.73357      .   S
    C306   O575      0.73357      .   S
    C69    O576      0.54067      .   S
    C210   O576      0.54067      .   S
    C318   O577      0.73597      .   S
    C274   O577      0.73597      .   S
    C318   O578      0.69250      .   S
    C268   O578      0.69250      .   S
    C303   O579      0.63760      .   S
    C322   O579      0.63760      .   S
    C287   O580      0.76579      .   S
    C214   O580      0.76579  1_455   S
    C287   O581      0.76789      .   S
    C280   O581      0.76789      .   S
    C287   O582      0.55085  1_655   S
    C140   O582      0.55085      .   S
    C274   O583      0.54899      .   S
    C122   O583      0.54899      .   S
    C203   O584      0.73597      .   S
    C299   O584      0.73597      .   S
    C203   O585      0.76844      .   S
    C204   O585      0.76844      .   S
    C203   O586      0.54856      .   S
    C56    O586      0.54856      .   S
    C214   O587      0.55110  1_455   S
    C74    O587      0.55110      .   S
    C322   O588      0.70859      .   S
    C266   O588      0.70859      .   S
    C299   O589      0.68119      .   S
    C198   O589      0.68119      .   S
    C77    O590      0.54333      .   S
    C216   O590      0.54333      .   S
    C280   O591      0.54952      .   S
    C132   O591      0.54952      .   S
    C280   O592      0.54994      .   S
    C134   O592      0.54994      .   S
    C272   O593      0.54109      .   S
    C120   O593      0.54109      .   S
    C272   O594      0.68485      .   S
    C268   O594      0.68485      .   S
    C223   O595      0.62320      .   S
    C350   O595      0.62320      .   S
    C223   O596      0.75580      .   S
    C218   O596      0.75580      .   S
    C204   O597      0.55039      .   S
    C60    O597      0.55039  1_545   S
    C204   O598      0.55109      .   S
    C58    O598      0.55109      .   S
    C210   O599      0.67869      .   S
    C306   O599      0.67869      .   S
    C210   O600      0.66759      .   S
    C304   O600      0.66759      .   S
    C114   O601      0.54397      .   S
    C264   O601      0.54397      .   S
    C348   O602      0.62702      .   S
    C220   O602      0.62702      .   S
    C306   O603      0.69504      .   S
    C206   O603      0.69504      .   S
    C268   O604      0.54027      .   S
    C116   O604      0.54027      .   S
    C328   O605      0.97749      .   S
    C0     O605      0.97749      .   S
    C300   O606      0.66995      .   S
    C198   O606      0.66995      .   S
    C300   O607      1.03808      .   S
    C2     O607      1.03808      .   S
    C36    O608      0.54222      .   S
    C176   O608      0.54222      .   S
    C216   O609      0.70084  1_455   S
    C218   O609      0.70084      .   S
    C216   O610      0.69761      .   S
    C224   O610      0.69761      .   S
    C198   O611      0.54211      .   S
    C50    O611      0.54211      .   S
    C266   O612      0.69980      .   S
    C264   O612      0.69980      .   S
    C266   O613      0.70466      .   S
    C262   O613      0.70466      .   S
    C218   O614      0.69877      .   S
    C226   O614      0.69877      .   S
    C264   O615      0.69794      .   S
    C260   O615      0.69794      .   S
    C304   O616      1.00918      .   S
    C2     O616      1.00918      .   S
    C304   O617      0.69397      .   S
    C212   O617      0.69397      .   S
    C220   O618      0.74995      .   S
    C224   O618      0.74995      .   S
    C220   O619      0.64987      .   S
    C346   O619      0.64987      .   S
    C354   O620      0.99743      .   S
    C0     O620      0.99743      .   S
    C354   O621      0.64988      .   S
    C256   O621      0.64988      .   S
    C206   O622      0.54069      .   S
    C62    O622      0.54069      .   S
    C206   O623      0.68481      .   S
    C212   O623      0.68481      .   S
    C176   O624      0.68479      .   S
    C170   O624      0.68479      .   S
    C176   O625      0.69394  1_565   S
    C294   O625      0.69394      .   S
    C112   O626      0.54421      .   S
    C262   O626      0.54421      .   S
    C224   O627      0.69809      .   S
    C228   O627      0.69809      .   S
    C262   O628      0.69886      .   S
    C254   O628      0.69886      .   S
    C2     O629      0.99775      .   S
    C346   O629      0.99775      .   S
    C2     O630      0.97675      .   S
    C336   O630      0.97675      .   S
    C0     O631      1.00906      .   S
    C294   O631      1.00906      .   S
    C0     O632      1.03734      .   S
    C290   O632      1.03734      .   S
    C28    O633      0.54068      .   S
    C170   O633      0.54068      .   S
    C226   O634      0.54420      .   S
    C78    O634      0.54420      .   S
    C226   O635      0.70444      .   S
    C230   O635      0.70444  1_455   S
    C260   O636      0.74974      .   S
    C256   O636      0.74974      .   S
    C260   O637      0.69753      .   S
    C252   O637      0.69753      .   S
    C16    O638      0.48654      .   S
    C162   O638      0.48654      .   S
    C212   O639      0.54219      .   S
    C70    O639      0.54219      .   S
    C170   O640      0.69508      .   S
    C296   O640      0.69508      .   S
    C256   O641      0.62694      .   S
    C356   O641      0.62694      .   S
    C294   O642      0.66760      .   S
    C174   O642      0.66760      .   S
    C82    O643      0.54025      .   S
    C232   O643      0.54025      .   S
    C24    O644      0.55110      .   S
    C168   O644      0.55110      .   S
    C228   O645      0.69998      .   S
    C230   O645      0.69998      .   S
    C228   O646      0.54402      .   S
    C80    O646      0.54402      .   S
    C254   O647      0.70103      .   S
    C252   O647      0.70103      .   S
    C254   O648      0.75596      .   S
    C258   O648      0.75596      .   S
    C230   O649      0.70866      .   S
    C312   O649      0.70866      .   S
    C100   O650      0.54993      .   S
    C244   O650      0.54993      .   S
    C162   O651      0.66992      .   S
    C290   O651      0.66992      .   S
    C162   O652      0.68114      .   S
    C288   O652      0.68114      .   S
    C252   O653      0.54334      .   S
    C110   O653      0.54334      .   S
    C40    O654      0.55117      .   S
    C178   O654      0.55117      .   S
    C88    O655      0.54900      .   S
    C238   O655      0.54900      .   S
    C290   O656      0.69235      .   S
    C164   O656      0.69235      .   S
    C336   O657      0.65335      .   S
    C186   O657      0.65335      .   S
    C232   O658      0.68484      .   S
    C236   O658      0.68484      .   S
    C232   O659      0.69253      .   S
    C308   O659      0.69253      .   S
    C296   O660      0.67873      .   S
    C174   O660      0.67873  1_545   S
    C296   O661      0.73360      .   S
    C172   O661      0.73360      .   S
    C86    O662      0.54113      .   S
    C236   O662      0.54113      .   S
    C22    O663      0.54855      .   S
    C166   O663      0.54855      .   S
    C106   O664      0.55098      .   S
    C250   O664      0.55098      .   S
    C174   O665      0.54068      .   S
    C34    O665      0.54068      .   S
    C358   O666      0.62322      .   S
    C258   O666      0.62322      .   S
    C26    O667      0.55038      .   S
    C168   O667      0.55038      .   S
    C168   O668      0.76854      .   S
    C166   O668      0.76854      .   S
    C168   O669      0.76640      .   S
    C240   O669      0.76640  1_455   S
    C258   O670      0.65335      .   S
    C352   O670      0.65335      .   S
    C236   O671      0.69236      .   S
    C310   O671      0.69236      .   S
    C98    O672      0.54953      .   S
    C244   O672      0.54953      .   S
    C244   O673      0.76797      .   S
    C250   O673      0.76797      .   S
    C244   O674      0.73360      .   S
    C316   O674      0.73360      .   S
    C102   O675      0.54068      .   S
    C246   O675      0.54068      .   S
    C288   O676      0.73584  1_455   S
    C166   O676      0.73584      .   S
    C288   O677      0.69253      .   S
    C160   O677      0.69253      .   S
    C178   O678      0.76582  1_565   S
    C250   O678      0.76582      .   S
    C178   O679      0.76796      .   S
    C172   O679      0.76796      .   S
    C178   O680      0.55098      .   S
    C38    O680      0.55098      .   S
    C312   O681      0.63767  1_465   S
    C292   O681      0.63767      .   S
    C166   O682      0.54900      .   S
    C20    O682      0.54900      .   S
    C238   O683      0.73584      .   S
    C308   O683      0.73584  1_655   S
    C238   O684      0.76854      .   S
    C240   O684      0.76854      .   S
    C238   O685      0.54855      .   S
    C90    O685      0.54855      .   S
    C292   O686      0.70867      .   S
    C158   O686      0.70867      .   S
    C250   O687      0.55118      .   S
    C108   O687      0.55118      .   S
    C308   O688      0.68114      .   S
    C234   O688      0.68114      .   S
    C42    O689      0.54334      .   S
    C180   O689      0.54334      .   S
    C172   O690      0.54953      .   S
    C30    O690      0.54953      .   S
    C172   O691      0.54993      .   S
    C32    O691      0.54993      .   S
    C164   O692      0.54113      .   S
    C18    O692      0.54113      .   S
    C164   O693      0.68484      .   S
    C160   O693      0.68484      .   S
    C186   O694      0.62323      .   S
    C342   O694      0.62323      .   S
    C186   O695      0.75595      .   S
    C182   O695      0.75595      .   S
    C240   O696      0.55039      .   S
    C94    O696      0.55039      .   S
    C240   O697      0.55110      .   S
    C92    O697      0.55110      .   S
    C246   O698      0.67873  1_565   S
    C316   O698      0.67873      .   S
    C246   O699      0.66760      .   S
    C314   O699      0.66760      .   S
    C12    O700      0.54403      .   S
    C156   O700      0.54403      .   S
    C340   O701      0.62694      .   S
    C184   O701      0.62694      .   S
    C316   O702      0.69508      .   S
    C242   O702      0.69508      .   S
    C160   O703      0.54025      .   S
    C14    O703      0.54025      .   S
    C352   O704      0.97677      .   S
    C6     O704      0.97677      .   S
    C310   O705      0.66992      .   S
    C234   O705      0.66992      .   S
    C310   O706      1.03732      .   S
    C4     O706      1.03732      .   S
    C138   O707      0.54219      .   S
    C284   O707      0.54219      .   S
    C180   O708      0.70104      .   S
    C182   O708      0.70104      .   S
    C180   O709      0.69753      .   S
    C188   O709      0.69753      .   S
    C234   O710      0.54211      .   S
    C84    O710      0.54211  1_455   S
    C158   O711      0.69998      .   S
    C156   O711      0.69998      .   S
    C158   O712      0.70444  1_655   S
    C154   O712      0.70444      .   S
    C182   O713      0.69886      .   S
    C190   O713      0.69886      .   S
    C156   O714      0.69809      .   S
    C152   O714      0.69809      .   S
    C314   O715      1.00910      .   S
    C4     O715      1.00910      .   S
    C314   O716      0.69394      .   S
    C248   O716      0.69394  1_545   S
    C184   O717      0.74973      .   S
    C188   O717      0.74973      .   S
    C184   O718      0.64987      .   S
    C338   O718      0.64987      .   S
    C330   O719      0.99772      .   S
    C6     O719      0.99772      .   S
    C330   O720      0.64987      .   S
    C148   O720      0.64987      .   S
    C242   O721      0.54068      .   S
    C96    O721      0.54068      .   S
    C242   O722      0.68479      .   S
    C248   O722      0.68479      .   S
    C284   O723      0.68482      .   S
    C278   O723      0.68482      .   S
    C284   O724      0.69397      .   S
    C324   O724      0.69397      .   S
    C10    O725      0.54420      .   S
    C154   O725      0.54420      .   S
    C188   O726      0.69795      .   S
    C192   O726      0.69795      .   S
    C154   O727      0.69877      .   S
    C146   O727      0.69877      .   S
    C4     O728      0.99744      .   S
    C338   O728      0.99744      .   S
    C4     O729      0.97746      .   S
    C344   O729      0.97746      .   S
    C6     O730      1.00919      .   S
    C324   O730      1.00919      .   S
    C6     O731      1.03805      .   S
    C320   O731      1.03805      .   S
    C130   O732      0.54069      .   S
    C278   O732      0.54069      .   S
    C190   O733      0.54421      .   S
    C44    O733      0.54421      .   S
    C190   O734      0.70466      .   S
    C194   O734      0.70466      .   S
    C152   O735      0.74995      .   S
    C148   O735      0.74995      .   S
    C152   O736      0.69760      .   S
    C144   O736      0.69760      .   S
    C118   O737      0.54210      .   S
    C270   O737      0.54210      .   S
    C248   O738      0.54223      .   S
    C104   O738      0.54223      .   S
    C278   O739      0.69505      .   S
    C326   O739      0.69505      .   S
    C148   O740      0.62702      .   S
    C332   O740      0.62702      .   S
    C324   O741      0.66759      .   S
    C282   O741      0.66759      .   S
    C48    O742      0.54027      .   S
    C196   O742      0.54027      .   S
    C126   O743      0.55109      .   S
    C276   O743      0.55109      .   S
    C192   O744      0.69980      .   S
    C194   O744      0.69980      .   S
    C192   O745      0.54397      .   S
    C46    O745      0.54397      .   S
    C146   O746      0.70083      .   S
    C144   O746      0.70083  1_655   S
    C66    O747      0.54993      .   S
    C208   O747      0.54993      .   S
    C194   O748      0.70859      .   S
    C302   O748      0.70859      .   S
    C270   O749      0.66995      .   S
    C320   O749      0.66995      .   S
    C142   O750      0.55110      .   S
    C286   O750      0.55110  1_655   S
    C196   O751      0.68485      .   S
    C200   O751      0.68485      .   S
    C326   O752      0.67870      .   S
    C282   O752      0.67870      .   S
    C52    O753      0.54110      .   S
    C200   O753      0.54110      .   S
    C128   O754      0.55038  1_565   S
    C276   O754      0.55038      .   S
    C64    O755      0.54951      .   S
    C208   O755      0.54951      .   S
