# CIF file generated by openbabel 2.4.90, see http://openbabel.sf.net
data_I
_chemical_name_common ''
_cell_length_a 20.243
_cell_length_b 22.896
_cell_length_c 13.99
_cell_angle_alpha 90.005
_cell_angle_beta 100.938
_cell_angle_gamma 89.996
_space_group_name_H-M_alt 'P 1'
_space_group_name_Hall 'P 1'
loop_
    _symmetry_equiv_pos_as_xyz
    x,y,z
loop_
    _atom_site_label
    _atom_site_type_symbol
    _atom_site_fract_x
    _atom_site_fract_y
    _atom_site_fract_z
    _atom_site_occupancy
    C0      C    0.33322   1.00000   0.64486   1.000
    C1      C    0.33322   0.50001   0.64480   1.000
    C2      C    0.83322   1.00000   0.64486   1.000
    C3      C    0.83323   0.50000   0.64485   1.000
    C4      C    0.08609   0.99998   0.68598   1.000
    C5      C    0.08611   0.50000   0.68598   1.000
    C6      C    0.58610   0.99999   0.68598   1.000
    C7      C    0.58610   0.50001   0.68598   1.000
    C8      C    0.16679   0.99999   0.35512   1.000
    C9      C    0.16679   0.49999   0.35511   1.000
    C10     C    0.66680   0.99999   0.35511   1.000
    C11     C    0.66679   0.50000   0.35512   1.000
    C12     C    0.41391   0.99999   0.31399   1.000
    C13     C    0.41390   0.50001   0.31398   1.000
    C14     C    0.91391   0.99999   0.31399   1.000
    C15     C    0.91391   0.49999   0.31399   1.000
