# CIF file generated by openbabel 2.4.90, see http://openbabel.sf.net
data_I
_chemical_name_common ''
_cell_length_a 20.243
_cell_length_b 22.896
_cell_length_c 13.99
_cell_angle_alpha 90.005
_cell_angle_beta 100.938
_cell_angle_gamma 89.996
_space_group_name_H-M_alt 'P 1'
_space_group_name_Hall 'P 1'
loop_
    _symmetry_equiv_pos_as_xyz
    x,y,z
loop_
    _atom_site_label
    _atom_site_type_symbol
    _atom_site_fract_x
    _atom_site_fract_y
    _atom_site_fract_z
    _atom_site_occupancy
    N0      N    0.18965   0.75000   0.59548   1.000
    N1      N    0.31036   0.75000   0.40444   1.000
    N2      N    0.18965   0.25000   0.59546   1.000
    N3      N    0.81036   0.75000   0.40448   1.000
    N4      N    0.50000   0.50000   0.99994   1.000
    N5      N    0.00000   0.99999   0.99999   1.000
    N6      N    0.50001   0.99999   0.99998   1.000
    N7      N    0.81036   0.25000   0.40448   1.000
    N8      N    0.68965   0.75000   0.59548   1.000
    N9      N    0.31036   0.25000   0.40447   1.000
    N10     N    0.68965   0.25000   0.59547   1.000
    N11     N    0.00001   0.50001   0.99998   1.000
    Zr12    Zr   0.75001   0.50000   0.49998   1.000
    O13     O    0.65815   0.50000   0.33066   1.000
    O14     O    0.84186   0.50000   0.66929   1.000
    O15     O    0.86129   0.50000   0.32303   1.000
    O16     O    0.63873   0.50000   0.67691   1.000
    O17     O    0.71942   0.57428   0.54835   1.000
    O18     O    0.71942   0.42572   0.54835   1.000
    O19     O    0.78059   0.57428   0.45161   1.000
    O20     O    0.78059   0.42572   0.45161   1.000
    Zr21    Zr   0.25000   0.50000   0.49997   1.000
    O22     O    0.34186   0.50000   0.66927   1.000
    O23     O    0.36128   0.50000   0.32302   1.000
    O24     O    0.13873   0.50000   0.67692   1.000
    O25     O    0.15815   0.50000   0.33067   1.000
    O26     O    0.21942   0.57428   0.54834   1.000
    O27     O    0.21942   0.42572   0.54834   1.000
    O28     O    0.28059   0.57428   0.45160   1.000
    O29     O    0.28059   0.42572   0.45161   1.000
    Zr30    Zr   0.75001   1.00000   0.49998   1.000
    O31     O    0.86128   0.99999   0.32304   1.000
    O32     O    0.63873   0.99999   0.67692   1.000
    O33     O    0.78059   0.92572   0.45162   1.000
    O34     O    0.78059   0.07428   0.45162   1.000
    O35     O    0.65815   1.00000   0.33067   1.000
    O36     O    0.84186   1.00000   0.66930   1.000
    O37     O    0.71942   0.92572   0.54835   1.000
    O38     O    0.71942   0.07428   0.54835   1.000
    Zr39    Zr   0.25000   1.00000   0.49993   1.000
    O40     O    0.36128   0.99999   0.32302   1.000
    O41     O    0.34186   1.00000   0.66927   1.000
    O42     O    0.13872   0.99999   0.67690   1.000
    O43     O    0.15815   0.99999   0.33064   1.000
    O44     O    0.28059   0.92572   0.45158   1.000
    O45     O    0.28059   0.07428   0.45159   1.000
    O46     O    0.21941   0.07428   0.54832   1.000
    O47     O    0.21942   0.92572   0.54832   1.000
loop_
    _geom_bond_atom_site_label_1
    _geom_bond_atom_site_label_2
    _geom_bond_distance
    _geom_bond_site_symmetry_2
    _ccdc_geom_bond_type
    Zr12   O13       2.71981      .   S
    N4     O13       5.10246  1_556   S
    Zr12   O14       2.71968      .   S
    N11    O14       5.10200  1_455   S
    Zr12   O15       3.64949      .   S
    N11    O15       5.75572  1_456   S
    Zr12   O16       3.64930      .   S
    N4     O16       5.75535      .   S
    Zr12   O17       1.97292      .   S
    N8     O17       4.13940      .   S
    Zr12   O18       1.97307      .   S
    N10    O18       4.13958      .   S
    Zr12   O19       1.97312      .   S
    N3     O19       4.13960      .   S
    Zr12   O20       1.97292      .   S
    N7     O20       4.13941      .   S
    Zr21   O22       2.71955      .   S
    N4     O22       5.10179      .   S
    Zr21   O23       3.64946      .   S
    N4     O23       5.75611  1_556   S
    Zr21   O24       3.64941      .   S
    N11    O24       5.75572      .   S
    Zr21   O25       2.71964      .   S
    N11    O25       5.10202  1_556   S
    Zr21   O26       1.97293      .   S
    N0     O26       4.13941      .   S
    Zr21   O27       1.97308      .   S
    N2     O27       4.13960      .   S
    Zr21   O28       1.97311      .   S
    N1     O28       4.13970      .   S
    Zr21   O29       1.97292      .   S
    N9     O29       4.13945      .   S
    Zr30   O31       3.64937      .   S
    N5     O31       5.75569  1_456   S
    Zr30   O32       3.64941      .   S
    N6     O32       5.75572      .   S
    Zr30   O33       1.97288      .   S
    N3     O33       4.13937      .   S
    Zr30   O34       1.97310  1_565   S
    N7     O34       4.13966      .   S
    Zr30   O35       2.71966      .   S
    N6     O35       5.10206  1_556   S
    Zr30   O36       2.71970      .   S
    N5     O36       5.10204  1_455   S
    Zr30   O37       1.97303      .   S
    N8     O37       4.13954      .   S
    Zr30   O38       1.97293  1_565   S
    N10    O38       4.13941      .   S
    Zr39   O40       3.64915      .   S
    N6     O40       5.75546  1_556   S
    Zr39   O41       2.71997      .   S
    N6     O41       5.10235      .   S
    Zr39   O42       3.64970      .   S
    N5     O42       5.75609      .   S
    Zr39   O43       2.71948      .   S
    N5     O43       5.10166  1_556   S
    Zr39   O44       1.97280      .   S
    N1     O44       4.13935      .   S
    Zr39   O45       1.97296  1_565   S
    N9     O45       4.13958      .   S
    Zr39   O46       1.97307  1_565   S
    N2     O46       4.13945      .   S
    Zr39   O47       1.97317      .   S
    N0     O47       4.13957      .   S
