# CIF file generated by openbabel 2.4.90, see http://openbabel.sf.net
data_I
_chemical_name_common ''
_cell_length_a 20.243
_cell_length_b 22.896
_cell_length_c 13.99
_cell_angle_alpha 90.005
_cell_angle_beta 100.938
_cell_angle_gamma 89.996
_space_group_name_H-M_alt 'P 1'
_space_group_name_Hall 'P 1'
loop_
    _symmetry_equiv_pos_as_xyz
    x,y,z
loop_
    _atom_site_label
    _atom_site_type_symbol
    _atom_site_fract_x
    _atom_site_fract_y
    _atom_site_fract_z
    _atom_site_occupancy
    Zr0     Zr   0.18637   0.00000   0.60058   1.000
    Zr1     Zr   0.18637   0.50000   0.60058   1.000
    Zr2     Zr   0.68637   0.00000   0.60058   1.000
    Zr3     Zr   0.68637   0.50000   0.60058   1.000
    Zr4     Zr   0.31364   1.00000   0.39939   1.000
    Zr5     Zr   0.31363   0.50000   0.39939   1.000
    Zr6     Zr   0.81364   1.00000   0.39940   1.000
    Zr7     Zr   0.81364   0.50000   0.39938   1.000
    Zr8     Zr   0.33322   1.00000   0.64486   1.000
    Zr9     Zr   0.33322   0.50001   0.64480   1.000
    Zr10    Zr   0.83322   1.00000   0.64486   1.000
    Zr11    Zr   0.83323   0.50000   0.64485   1.000
    Zr12    Zr   0.08609   0.99998   0.68598   1.000
    Zr13    Zr   0.08611   0.50000   0.68598   1.000
    Zr14    Zr   0.58610   0.99999   0.68598   1.000
    Zr15    Zr   0.58610   0.50001   0.68598   1.000
    Zr16    Zr   0.16679   0.99999   0.35512   1.000
    Zr17    Zr   0.16679   0.49999   0.35511   1.000
    Zr18    Zr   0.66680   0.99999   0.35511   1.000
    Zr19    Zr   0.66679   0.50000   0.35512   1.000
    Zr20    Zr   0.41391   0.99999   0.31399   1.000
    Zr21    Zr   0.41390   0.50001   0.31398   1.000
    Zr22    Zr   0.91391   0.99999   0.31399   1.000
    Zr23    Zr   0.91391   0.49999   0.31399   1.000
    Zr24    Zr   0.28228   0.99999   0.68677   1.000
    Zr25    Zr   0.28228   0.50000   0.68676   1.000
    Zr26    Zr   0.78228   1.00000   0.68677   1.000
    Zr27    Zr   0.78229   0.50001   0.68676   1.000
    Zr28    Zr   0.33010   0.00000   0.55300   1.000
    Zr29    Zr   0.33011   0.50001   0.55379   1.000
    Zr30    Zr   0.83010   0.00001   0.55380   1.000
    Zr31    Zr   0.83012   0.50001   0.55379   1.000
    Zr32    Zr   0.07939   0.00001   0.59296   1.000
    Zr33    Zr   0.07941   0.50000   0.59296   1.000
    Zr34    Zr   0.57940   0.00000   0.59296   1.000
    Zr35    Zr   0.57940   0.50000   0.59296   1.000
    Zr36    Zr   0.14354   0.00000   0.74143   1.000
    Zr37    Zr   0.14355   0.50000   0.74144   1.000
    Zr38    Zr   0.64355   0.00000   0.74140   1.000
    Zr39    Zr   0.64355   0.50000   0.74143   1.000
    Zr40    Zr   0.21773   1.00000   0.31320   1.000
    Zr41    Zr   0.21772   0.50000   0.31320   1.000
    Zr42    Zr   0.71773   0.99999   0.31320   1.000
    Zr43    Zr   0.71772   0.50000   0.31320   1.000
    Zr44    Zr   0.16990   1.00000   0.44618   1.000
    Zr45    Zr   0.16990   0.50000   0.44610   1.000
    Zr46    Zr   0.66991   0.99999   0.44618   1.000
    Zr47    Zr   0.66990   0.50000   0.44618   1.000
    Zr48    Zr   0.42061   0.00000   0.40702   1.000
    Zr49    Zr   0.42060   0.50000   0.40701   1.000
    Zr50    Zr   0.92061   0.00001   0.40701   1.000
    Zr51    Zr   0.92061   0.50001   0.40701   1.000
    Zr52    Zr   0.35646   1.00000   0.25854   1.000
    Zr53    Zr   0.35645   0.49999   0.25853   1.000
    Zr54    Zr   0.85646   1.00000   0.25850   1.000
    Zr55    Zr   0.85646   0.50000   0.25853   1.000
    O56     O    0.88518   0.99999   0.28625   1.000
    O57     O    0.83505   1.00000   0.32895   1.000
    O58     O    0.88518   0.50000   0.28626   1.000
    O59     O    0.83505   0.50000   0.32895   1.000
    O60     O    0.38517   0.50000   0.28625   1.000
    O61     O    0.33504   0.50000   0.32896   1.000
    O62     O    0.38519   1.00000   0.28626   1.000
    O63     O    0.33505   1.00000   0.32897   1.000
    O64     O    0.69225   0.50000   0.33416   1.000
    O65     O    0.76568   0.50000   0.35629   1.000
    O66     O    0.69227   0.99999   0.33416   1.000
    O67     O    0.76569   1.00000   0.35630   1.000
    O68     O    0.19226   0.50000   0.33416   1.000
    O69     O    0.26568   0.50000   0.35630   1.000
    O70     O    0.19226   0.99999   0.33416   1.000
    O71     O    0.26568   1.00000   0.35630   1.000
    O72     O    0.41725   0.50001   0.36050   1.000
    O73     O    0.91726   1.00000   0.36050   1.000
    O74     O    0.91726   0.50000   0.36050   1.000
    O75     O    0.41726   1.00000   0.36051   1.000
    O76     O    0.16834   0.50000   0.40061   1.000
    O77     O    0.66835   0.99999   0.40065   1.000
    O78     O    0.66834   0.50000   0.40065   1.000
    O79     O    0.16835   1.00000   0.40065   1.000
    O80     O    0.86712   0.50001   0.40320   1.000
    O81     O    0.82188   0.50001   0.47659   1.000
    O82     O    0.36712   0.50000   0.40320   1.000
    O83     O    0.32187   0.50000   0.47659   1.000
    O84     O    0.36712   0.00000   0.40321   1.000
    O85     O    0.32187   0.00000   0.47620   1.000
    O86     O    0.86712   0.00000   0.40321   1.000
    O87     O    0.82187   0.00000   0.47660   1.000
    O88     O    0.17814   0.50000   0.52334   1.000
    O89     O    0.67814   0.50000   0.52338   1.000
    O90     O    0.67814   1.00000   0.52338   1.000
    O91     O    0.17813   1.00000   0.52338   1.000
    O92     O    0.33166   0.00000   0.59893   1.000
    O93     O    0.83167   0.50001   0.59932   1.000
    O94     O    0.33166   0.50001   0.59930   1.000
    O95     O    0.83166   0.00000   0.59933   1.000
    O96     O    0.13289   0.50000   0.59677   1.000
    O97     O    0.08276   0.50000   0.63947   1.000
    O98     O    0.13288   0.00000   0.59677   1.000
    O99     O    0.08274   0.99999   0.63947   1.000
    O100    O    0.63289   0.00000   0.59677   1.000
    O101    O    0.58275   0.99999   0.63947   1.000
    O102    O    0.63289   0.50000   0.59677   1.000
    O103    O    0.58275   0.50000   0.63947   1.000
    O104    O    0.73433   0.50000   0.64367   1.000
    O105    O    0.66496   0.50000   0.67101   1.000
    O106    O    0.23433   0.50000   0.64367   1.000
    O107    O    0.16496   0.50000   0.67101   1.000
    O108    O    0.73432   0.00000   0.64368   1.000
    O109    O    0.66496   0.00000   0.67099   1.000
    O110    O    0.23432   1.00000   0.64368   1.000
    O111    O    0.16495   0.00000   0.67101   1.000
    O112    O    0.30775   0.50000   0.66578   1.000
    O113    O    0.80776   0.50000   0.66580   1.000
    O114    O    0.80775   1.00000   0.66582   1.000
    O115    O    0.30775   1.00000   0.66582   1.000
    O116    O    0.11483   0.50000   0.71371   1.000
    O117    O    0.61483   0.99999   0.71369   1.000
    O118    O    0.61483   0.50000   0.71371   1.000
    O119    O    0.11482   0.99999   0.71371   1.000
    N120    N    0.18965   0.75000   0.59548   1.000
    O121    O    0.18883   0.85144   0.59672   1.000
    O122    O    0.18883   0.64856   0.59672   1.000
    N123    N    0.31036   0.75000   0.40444   1.000
    O124    O    0.31118   0.85144   0.40323   1.000
    O125    O    0.31117   0.64856   0.40323   1.000
    N126    N    0.18965   0.25000   0.59546   1.000
    O127    O    0.18883   0.14856   0.59671   1.000
    O128    O    0.18883   0.35144   0.59671   1.000
    N129    N    0.81036   0.75000   0.40448   1.000
    O130    O    0.81118   0.64856   0.40323   1.000
    O131    O    0.81118   0.85144   0.40325   1.000
    N132    N    0.50000   0.50000   0.99994   1.000
    O133    O    0.52744   0.50001   0.85384   1.000
    O134    O    0.43372   0.50001   0.83857   1.000
    O135    O    0.47256   0.50001   0.14608   1.000
    O136    O    0.56629   0.50000   0.16134   1.000
    N137    N    0.00000   0.99999   0.99999   1.000
    O138    O    0.06629   0.99999   0.16135   1.000
    O139    O    0.93372   0.99999   0.83861   1.000
    O140    O    0.97256   0.99999   0.14610   1.000
    O141    O    0.02744   0.99999   0.85386   1.000
    N142    N    0.50001   0.99999   0.99998   1.000
    O143    O    0.52745   0.99999   0.85387   1.000
    O144    O    0.43372   0.99999   0.83861   1.000
    O145    O    0.47257   0.99999   0.14610   1.000
    O146    O    0.56630   0.99999   0.16136   1.000
    N147    N    0.81036   0.25000   0.40448   1.000
    O148    O    0.81118   0.35144   0.40325   1.000
    O149    O    0.81118   0.14856   0.40325   1.000
    N150    N    0.68965   0.75000   0.59548   1.000
    O151    O    0.68884   0.85144   0.59672   1.000
    O152    O    0.68883   0.64856   0.59672   1.000
    N153    N    0.31036   0.25000   0.40447   1.000
    O154    O    0.31117   0.14856   0.40325   1.000
    O155    O    0.31118   0.35144   0.40324   1.000
    N156    N    0.68965   0.25000   0.59547   1.000
    O157    O    0.68883   0.35144   0.59671   1.000
    O158    O    0.68883   0.14856   0.59671   1.000
    N159    N    0.00001   0.50001   0.99998   1.000
    O160    O    0.97257   0.50000   0.14609   1.000
    O161    O    0.93372   0.50001   0.83860   1.000
    O162    O    0.06629   0.50000   0.16136   1.000
    O163    O    0.02745   0.50000   0.85386   1.000
loop_
    _geom_bond_atom_site_label_1
    _geom_bond_atom_site_label_2
    _geom_bond_distance
    _geom_bond_site_symmetry_2
    _ccdc_geom_bond_type
    Zr54   O56       0.63490      .   S
    Zr22   O56       0.63490      .   S
    Zr54   O57       1.14949      .   S
    Zr6    O57       1.14949      .   S
    Zr55   O58       0.63482      .   S
    Zr23   O58       0.63482      .   S
    Zr55   O59       1.14918      .   S
    Zr7    O59       1.14918      .   S
    Zr53   O60       0.63477      .   S
    Zr21   O60       0.63477      .   S
    Zr53   O61       1.14922      .   S
    Zr5    O61       1.14922      .   S
    Zr52   O62       0.63478      .   S
    Zr20   O62       0.63478      .   S
    Zr52   O63       1.14920      .   S
    Zr4    O63       1.14920      .   S
    Zr43   O64       0.63964      .   S
    Zr19   O64       0.63964      .   S
    Zr43   O65       1.04106      .   S
    Zr7    O65       1.04106      .   S
    Zr42   O66       0.63962      .   S
    Zr18   O66       0.63962      .   S
    Zr42   O67       1.04103      .   S
    Zr6    O67       1.04103      .   S
    Zr41   O68       0.63961      .   S
    Zr17   O68       0.63961      .   S
    Zr41   O69       1.04103      .   S
    Zr5    O69       1.04103      .   S
    Zr40   O70       0.63965      .   S
    Zr16   O70       0.63965      .   S
    Zr40   O71       1.04105      .   S
    Zr4    O71       1.04105      .   S
    Zr21   O72       0.64134      .   S
    Zr49   O72       0.64134      .   S
    Zr22   O73       0.64127      .   S
    Zr50   O73       0.64127  1_545   S
    Zr23   O74       0.64127      .   S
    Zr51   O74       0.64127      .   S
    Zr20   O75       0.64134      .   S
    Zr48   O75       0.64134  1_545   S
    Zr17   O76       0.63125      .   S
    Zr45   O76       0.63125      .   S
    Zr18   O77       0.63181      .   S
    Zr46   O77       0.63181      .   S
    Zr19   O78       0.63174      .   S
    Zr47   O78       0.63174      .   S
    Zr16   O79       0.63174      .   S
    Zr44   O79       0.63174      .   S
    Zr7    O80       1.07387      .   S
    Zr51   O80       1.07387      .   S
    Zr7    O81       1.06116      .   S
    Zr31   O81       1.06116      .   S
    Zr5    O82       1.07379      .   S
    Zr49   O82       1.07379      .   S
    Zr5    O83       1.06109      .   S
    Zr29   O83       1.06109      .   S
    Zr4    O84       1.07390  1_565   S
    Zr48   O84       1.07390      .   S
    Zr4    O85       1.05564  1_565   S
    Zr28   O85       1.05564      .   S
    Zr6    O86       1.07383  1_565   S
    Zr50   O86       1.07383      .   S
    Zr6    O87       1.06110  1_565   S
    Zr30   O87       1.06110      .   S
    Zr45   O88       1.06165      .   S
    Zr1    O88       1.06165      .   S
    Zr47   O89       1.06109      .   S
    Zr3    O89       1.06109      .   S
    Zr46   O90       1.06110      .   S
    Zr2    O90       1.06110  1_545   S
    Zr44   O91       1.06110      .   S
    Zr0    O91       1.06110  1_545   S
    Zr28   O92       0.63733      .   S
    Zr8    O92       0.63733  1_565   S
    Zr31   O93       0.63175      .   S
    Zr11   O93       0.63175      .   S
    Zr29   O94       0.63140      .   S
    Zr9    O94       0.63140      .   S
    Zr30   O95       0.63175      .   S
    Zr10   O95       0.63175  1_565   S
    Zr33   O96       1.07382      .   S
    Zr1    O96       1.07382      .   S
    Zr33   O97       0.64127      .   S
    Zr13   O97       0.64127      .   S
    Zr32   O98       1.07392      .   S
    Zr0    O98       1.07392      .   S
    Zr32   O99       0.64127  1_545   S
    Zr12   O99       0.64127      .   S
    Zr34   O100      1.07384      .   S
    Zr2    O100      1.07384      .   S
    Zr34   O101      0.64127  1_545   S
    Zr14   O101      0.64127      .   S
    Zr35   O102      1.07389      .   S
    Zr3    O102      1.07389      .   S
    Zr35   O103      0.64127      .   S
    Zr15   O103      0.64127      .   S
    Zr3    O104      1.04104      .   S
    Zr27   O104      1.04104      .   S
    Zr3    O105      1.14918      .   S
    Zr39   O105      1.14918      .   S
    Zr1    O106      1.04099      .   S
    Zr25   O106      1.04099      .   S
    Zr1    O107      1.14922      .   S
    Zr37   O107      1.14922      .   S
    Zr2    O108      1.04101      .   S
    Zr26   O108      1.04101  1_565   S
    Zr2    O109      1.14897      .   S
    Zr38   O109      1.14897      .   S
    Zr0    O110      1.04106  1_545   S
    Zr24   O110      1.04106      .   S
    Zr0    O111      1.14919      .   S
    Zr36   O111      1.14919      .   S
    Zr9    O112      0.63983      .   S
    Zr25   O112      0.63983      .   S
    Zr11   O113      0.63962      .   S
    Zr27   O113      0.63962      .   S
    Zr10   O114      0.63962      .   S
    Zr26   O114      0.63962      .   S
    Zr8    O115      0.63962      .   S
    Zr24   O115      0.63962      .   S
    Zr13   O116      0.63481      .   S
    Zr37   O116      0.63481      .   S
    Zr14   O117      0.63469      .   S
    Zr38   O117      0.63469  1_545   S
    Zr15   O118      0.63479      .   S
    Zr39   O118      0.63479      .   S
    Zr12   O119      0.63479      .   S
    Zr36   O119      0.63479  1_545   S
    N120   O121      2.32267      .   S
    Zr0    O121      3.40234  1_545   S
    N120   O122      2.32270      .   S
    Zr1    O122      3.40243      .   S
    N123   O124      2.32267      .   S
    Zr4    O124      3.40234      .   S
    N123   O125      2.32270      .   S
    Zr5    O125      3.40241      .   S
    N126   O127      2.32269      .   S
    Zr0    O127      3.40241      .   S
    N126   O128      2.32270      .   S
    Zr1    O128      3.40243      .   S
    N129   O130      2.32268      .   S
    Zr7    O130      3.40239      .   S
    N129   O131      2.32268      .   S
    Zr6    O131      3.40236      .   S
    N132   O133      2.21738      .   S
    Zr15   O133      2.82548      .   S
    N132   O134      2.39738      .   S
    Zr9    O134      3.06502      .   S
    N132   O135      2.21801  1_556   S
    Zr21   O135      2.82602      .   S
    N132   O136      2.39779  1_556   S
    Zr19   O136      3.06514      .   S
    N137   O138      2.39732  1_556   S
    Zr16   O138      3.06508      .   S
    N137   O139      2.39747  1_455   S
    Zr10   O139      3.06485      .   S
    N137   O140      2.21768  1_456   S
    Zr22   O140      2.82576      .   S
    N137   O141      2.21773      .   S
    Zr12   O141      2.82566      .   S
    N142   O143      2.21766      .   S
    Zr14   O143      2.82574      .   S
    N142   O144      2.39749      .   S
    Zr8    O144      3.06482      .   S
    N142   O145      2.21770  1_556   S
    Zr20   O145      2.82578      .   S
    N142   O146      2.39753  1_556   S
    Zr18   O146      3.06485      .   S
    N147   O148      2.32270      .   S
    Zr7    O148      3.40242      .   S
    N147   O149      2.32270      .   S
    Zr6    O149      3.40243  1_565   S
    N150   O151      2.32267      .   S
    Zr2    O151      3.40235  1_545   S
    N150   O152      2.32270      .   S
    Zr3    O152      3.40241      .   S
    N153   O154      2.32269      .   S
    Zr4    O154      3.40240  1_565   S
    N153   O155      2.32270      .   S
    Zr5    O155      3.40243      .   S
    N156   O157      2.32269      .   S
    Zr3    O157      3.40241      .   S
    N156   O158      2.32270      .   S
    Zr2    O158      3.40243      .   S
    N159   O160      2.21757  1_456   S
    Zr23   O160      2.82597      .   S
    N159   O161      2.39746  1_455   S
    Zr11   O161      3.06482      .   S
    N159   O162      2.39752  1_556   S
    Zr17   O162      3.06483      .   S
    N159   O163      2.21765      .   S
    Zr13   O163      2.82573      .   S
