# CIF file generated by openbabel 2.4.90, see http://openbabel.sf.net
data_I
_chemical_name_common ''
_cell_length_a 13.841
_cell_length_b 13.841
_cell_length_c 13.841
_cell_angle_alpha 108.007
_cell_angle_beta 108.003
_cell_angle_gamma 108.002
_space_group_name_H-M_alt 'P 1'
_space_group_name_Hall 'P 1'
loop_
    _symmetry_equiv_pos_as_xyz
    x,y,z
loop_
    _atom_site_label
    _atom_site_type_symbol
    _atom_site_fract_x
    _atom_site_fract_y
    _atom_site_fract_z
    _atom_site_occupancy
    Cd0     Cd   0.59881   0.95510   0.46151   1.000
    Cd1     Cd   0.46148   0.59884   0.95512   1.000
    Cd2     Cd   0.04492   0.53851   0.40118   1.000
    Cd3     Cd   0.40116   0.04492   0.53851   1.000
    Cd4     Cd   0.53848   0.40117   0.04490   1.000
    Cd5     Cd   0.95505   0.46150   0.59885   1.000
    Cl6     Cl   0.96304   0.62428   0.53694   1.000
    Cl7     Cl   0.53691   0.96308   0.62429   1.000
    Cl8     Cl   0.62426   0.53694   0.96311   1.000
    Cl9     Cl   0.03693   0.37573   0.46300   1.000
    Cl10    Cl   0.46306   0.03693   0.37573   1.000
    Cl11    Cl   0.37570   0.46307   0.03692   1.000
loop_
    _geom_bond_atom_site_label_1
    _geom_bond_atom_site_label_2
    _geom_bond_distance
    _geom_bond_site_symmetry_2
    _ccdc_geom_bond_type
    Cl11   Cd4       2.63067      .   S
    Cl10   Cd3       2.63065      .   S
    Cd2    Cl9       2.63001      .   S
    Cd0    Cl7       2.63063      .   S
    Cl6    Cd5       2.63075      .   S
    Cd1    Cl8       2.63066      .   S
