# CIF file generated by openbabel 2.4.90, see http://openbabel.sf.net
data_I
_chemical_name_common ''
_cell_length_a 10.246
_cell_length_b 21.667
_cell_length_c 12.269
_cell_angle_alpha 90.126
_cell_angle_beta 90.077
_cell_angle_gamma 93.863
_space_group_name_H-M_alt 'P 1'
_space_group_name_Hall 'P 1'
loop_
    _symmetry_equiv_pos_as_xyz
    x,y,z
loop_
    _atom_site_label
    _atom_site_type_symbol
    _atom_site_fract_x
    _atom_site_fract_y
    _atom_site_fract_z
    _atom_site_occupancy
    N0      N    0.24958   0.24949   0.49941   1.000
    N1      N    0.25012   0.75006   0.50030   1.000
    N2      N    0.74889   0.24947   0.49957   1.000
    N3      N    0.75083   0.75004   0.50005   1.000
    N4      N    0.25028   0.25035   0.99893   1.000
    N5      N    0.24987   0.74965   0.99954   1.000
    N6      N    0.75027   0.25038   0.99931   1.000
    N7      N    0.74985   0.74965   0.99954   1.000
    Zr8     Zr   0.00002   0.50000   0.00000   1.000
    O9      O    0.92473   0.57064   0.00413   1.000
    O10     O    0.07532   0.42937   0.99548   1.000
    O11     O    0.08114   0.56894   0.00317   1.000
    O12     O    0.91892   0.43108   0.99655   1.000
    Zr13    Zr   0.45697   0.02985   0.74978   1.000
    O14     O    0.37375   0.09269   0.82470   1.000
    O15     O    0.37358   0.09243   0.67434   1.000
    Zr16    Zr   0.50001   0.49988   0.50000   1.000
    O17     O    0.58146   0.56894   0.49712   1.000
    O18     O    0.42489   0.57068   0.49590   1.000
    O19     O    0.57487   0.42902   0.50407   1.000
    O20     O    0.41864   0.43076   0.50275   1.000
    Zr21    Zr   0.95697   0.03086   0.74976   1.000
    O22     O    0.87369   0.09332   0.82488   1.000
    O23     O    0.87325   0.09304   0.67446   1.000
    Zr24    Zr   0.43835   0.53356   0.70150   1.000
    O25     O    0.36479   0.59466   0.65068   1.000
    O26     O    0.36423   0.59423   0.80094   1.000
    Zr27    Zr   0.95722   0.52989   0.75025   1.000
    O28     O    0.87365   0.59238   0.82530   1.000
    O29     O    0.87441   0.59282   0.67498   1.000
    Zr30    Zr   0.00005   0.49979   0.50005   1.000
    O31     O    0.08131   0.56888   0.49722   1.000
    O32     O    0.92510   0.57060   0.49587   1.000
    O33     O    0.91850   0.43069   0.50282   1.000
    O34     O    0.07507   0.42895   0.50406   1.000
    Zr35    Zr   0.04280   0.47008   0.24974   1.000
    O36     O    0.12639   0.40758   0.17420   1.000
    O37     O    0.12570   0.40702   0.32487   1.000
    Zr38    Zr   0.04294   0.96915   0.25019   1.000
    O39     O    0.12629   0.90670   0.17481   1.000
    O40     O    0.12640   0.90684   0.32549   1.000
    Zr41    Zr   0.53232   0.97684   0.26260   1.000
    O42     O    0.62101   0.91054   0.18098   1.000
    O43     O    0.62140   0.91071   0.33159   1.000
    Zr44    Zr   0.49746   0.51128   0.87384   1.000
    O45     O    0.41764   0.43671   0.92087   1.000
    O46     O    0.57404   0.43502   0.92000   1.000
    Zr47    Zr   0.54278   0.47009   0.24975   1.000
    O48     O    0.62551   0.40703   0.32492   1.000
    O49     O    0.62637   0.40761   0.17440   1.000
    Zr50    Zr   0.49933   0.99910   0.50001   1.000
    O51     O    0.57507   0.92866   0.50424   1.000
    O52     O    0.41847   0.93029   0.50338   1.000
    O53     O    0.58023   0.06830   0.49676   1.000
    O54     O    0.42402   0.06984   0.49543   1.000
    Zr55    Zr   0.00016   0.00003   0.99990   1.000
    O56     O    0.08132   0.06920   0.00264   1.000
    O57     O    0.07534   0.92919   0.99564   1.000
    O58     O    0.92494   0.07086   0.00394   1.000
    O59     O    0.91895   0.93084   0.99680   1.000
    Zr60    Zr   0.99942   0.99992   0.49999   1.000
    O61     O    0.92383   0.07042   0.49549   1.000
    O62     O    0.91872   0.93088   0.50334   1.000
    O63     O    0.07495   0.92930   0.50439   1.000
    O64     O    0.08049   0.06891   0.49662   1.000
loop_
    _geom_bond_atom_site_label_1
    _geom_bond_atom_site_label_2
    _geom_bond_distance
    _geom_bond_site_symmetry_2
    _ccdc_geom_bond_type
    Zr8    O9        1.76024  1_455   S
    N7     O9        4.38125  1_556   S
    Zr8    O10       1.76052  1_554   S
    N4     O10       4.38163      .   S
    Zr8    O11       1.65998      .   S
    N5     O11       4.17263  1_556   S
    Zr8    O12       1.65982  1_454   S
    N6     O12       4.17190      .   S
    Zr13   O14       1.89189      .   S
    N4     O14       4.28892      .   S
    Zr13   O15       1.89334      .   S
    N0     O15       4.29051      .   S
    Zr16   O17       1.66401      .   S
    N3     O17       4.18221      .   S
    Zr16   O18       1.76276      .   S
    N1     O18       4.38782      .   S
    Zr16   O19       1.76269      .   S
    N2     O19       4.38745      .   S
    Zr16   O20       1.66460      .   S
    N0     O20       4.18459      .   S
    Zr21   O22       1.88717      .   S
    N6     O22       4.27954      .   S
    Zr21   O23       1.88764      .   S
    N2     O23       4.28048      .   S
    Zr24   O25       1.68708      .   S
    N1     O25       4.08353      .   S
    Zr24   O26       1.98054      .   S
    N5     O26       4.37658      .   S
    Zr27   O28       1.88879      .   S
    N7     O28       4.28333      .   S
    Zr27   O29       1.89502      .   S
    N3     O29       4.29181      .   S
    Zr30   O31       1.66374      .   S
    N1     O31       4.18175      .   S
    Zr30   O32       1.76218  1_455   S
    N3     O32       4.38646      .   S
    Zr30   O33       1.66511  1_455   S
    N2     O33       4.18550      .   S
    Zr30   O34       1.76301      .   S
    N0     O34       4.38815      .   S
    Zr35   O36       1.89172      .   S
    N4     O36       4.28955  1_556   S
    Zr35   O37       1.89673      .   S
    N0     O37       4.29596      .   S
    Zr38   O39       1.88895      .   S
    N5     O39       4.28494  1_556   S
    Zr38   O40       1.88839      .   S
    N1     O40       4.28387      .   S
    Zr41   O42       2.01603      .   S
    N7     O42       4.40951  1_556   S
    Zr41   O43       1.94473      .   S
    N3     O43       4.33541      .   S
    Zr44   O45       1.85468      .   S
    N4     O45       4.38751      .   S
    Zr44   O46       1.96068      .   S
    N6     O46       4.60396      .   S
    Zr47   O48       1.89621      .   S
    N2     O48       4.29532      .   S
    Zr47   O49       1.89041      .   S
    N6     O49       4.28829  1_556   S
    Zr50   O51       1.75898      .   S
    N3     O51       4.37749      .   S
    Zr50   O52       1.65662      .   S
    N1     O52       4.16158      .   S
    Zr50   O53       1.66431  1_565   S
    N2     O53       4.18106      .   S
    Zr50   O54       1.76299  1_565   S
    N0     O54       4.39136      .   S
    Zr55   O56       1.66455  1_556   S
    N4     O56       4.18202  1_556   S
    Zr55   O57       1.76381  1_545   S
    N5     O57       4.38977      .   S
    Zr55   O58       1.76387  1_456   S
    N6     O58       4.39022  1_556   S
    Zr55   O59       1.66510  1_445   S
    N7     O59       4.18331      .   S
    Zr60   O61       1.75952  1_565   S
    N2     O61       4.38208      .   S
    Zr60   O62       1.66045      .   S
    N3     O62       4.17181      .   S
    Zr60   O63       1.76152  1_655   S
    N1     O63       4.38685      .   S
    Zr60   O64       1.66117  1_665   S
    N0     O64       4.17089      .   S
