# CIF file generated by openbabel 2.4.90, see http://openbabel.sf.net
data_I
_chemical_name_common ''
_cell_length_a 14.131
_cell_length_b 14.13
_cell_length_c 14.133
_cell_angle_alpha 104.811
_cell_angle_beta 104.76
_cell_angle_gamma 104.833
_space_group_name_H-M_alt 'P 1'
_space_group_name_Hall 'P 1'
loop_
    _symmetry_equiv_pos_as_xyz
    x,y,z
loop_
    _atom_site_label
    _atom_site_type_symbol
    _atom_site_fract_x
    _atom_site_fract_y
    _atom_site_fract_z
    _atom_site_occupancy
    C0      C    0.59137   0.80198   0.32578   1.000
    C1      C    0.80216   0.32588   0.59140   1.000
    C2      C    0.19796   0.40867   0.67416   1.000
    C3      C    0.67422   0.19797   0.40864   1.000
    C4      C    0.40865   0.19799   0.67424   1.000
    C5      C    0.67409   0.40863   0.19793   1.000
    C6      C    0.80205   0.59131   0.32586   1.000
    C7      C    0.59141   0.32592   0.80210   1.000
    C8      C    0.32579   0.80200   0.59138   1.000
