# CIF file generated by openbabel 2.4.90, see http://openbabel.sf.net
data_I
_chemical_name_common ''
_cell_length_a 14.233
_cell_length_b 15.7
_cell_length_c 15.696
_cell_angle_alpha 87.161
_cell_angle_beta 76.976
_cell_angle_gamma 76.979
_space_group_name_H-M_alt 'P 1'
_space_group_name_Hall 'P 1'
loop_
    _symmetry_equiv_pos_as_xyz
    x,y,z
loop_
    _atom_site_label
    _atom_site_type_symbol
    _atom_site_fract_x
    _atom_site_fract_y
    _atom_site_fract_z
    _atom_site_occupancy
    C0      C    0.06175   0.76317   0.73683   1.000
    C1      C    0.56351   0.76314   0.73674   1.000
    C2      C    0.31269   0.23695   0.26311   1.000
    C3      C    0.81088   0.23688   0.26300   1.000
    C4      C    0.06975   0.73691   0.23687   1.000
    C5      C    0.56819   0.73689   0.23689   1.000
    C6      C    0.05401   0.26312   0.76307   1.000
    C7      C    0.55537   0.26311   0.76306   1.000
    C8      C    0.28494   0.74019   0.15679   1.000
    C9      C    0.78368   0.73960   0.15821   1.000
    C10     C    0.39266   0.74595   0.00524   1.000
    C11     C    0.89263   0.74571   0.00722   1.000
    C12     C    0.31595   0.75358   0.87650   1.000
    C13     C    0.81730   0.75364   0.87765   1.000
    C14     C    0.03821   0.74990   0.05433   1.000
    C15     C    0.53842   0.74974   0.05350   1.000
    C16     C    0.23143   0.25987   0.84293   1.000
    C17     C    0.73254   0.25898   0.84272   1.000
    C18     C    0.26694   0.25415   0.99440   1.000
    C19     C    0.76819   0.25322   0.99417   1.000
    C20     C    0.13029   0.24632   0.12332   1.000
    C21     C    0.63137   0.24637   0.12315   1.000
    C22     C    0.43920   0.25136   0.94591   1.000
    C23     C    0.93865   0.25030   0.94584   1.000
    C24     C    0.13733   0.15726   0.26000   1.000
    C25     C    0.63587   0.15586   0.25984   1.000
    C26     C    0.10440   0.00590   0.25427   1.000
    C27     C    0.60469   0.00385   0.25414   1.000
    C28     C    0.24479   0.87694   0.24637   1.000
    C29     C    0.74611   0.87584   0.24640   1.000
    C30     C    0.43497   0.05408   0.24981   1.000
    C31     C    0.93391   0.05503   0.24995   1.000
    C32     C    0.34614   0.84184   0.74019   1.000
    C33     C    0.84455   0.84201   0.74069   1.000
    C34     C    0.23433   0.99278   0.74595   1.000
    C35     C    0.73307   0.99310   0.74610   1.000
    C36     C    0.30597   0.12237   0.75312   1.000
    C37     C    0.80500   0.12250   0.75296   1.000
    C38     C    0.08584   0.94638   0.74785   1.000
    C39     C    0.58708   0.94652   0.74773   1.000
    C40     C    0.39097   0.65716   0.24117   1.000
    C41     C    0.89273   0.65704   0.23960   1.000
    C42     C    0.35541   0.50574   0.24679   1.000
    C43     C    0.85707   0.50568   0.24513   1.000
    C44     C    0.49230   0.37683   0.25341   1.000
    C45     C    0.99358   0.37672   0.25313   1.000
    C46     C    0.18528   0.55395   0.24982   1.000
    C47     C    0.68450   0.55403   0.24817   1.000
    C48     C    0.34014   0.34328   0.76046   1.000
    C49     C    0.83932   0.34298   0.75980   1.000
    C50     C    0.23239   0.49477   0.75430   1.000
    C51     C    0.73141   0.49446   0.75417   1.000
    C52     C    0.30914   0.62346   0.74641   1.000
    C53     C    0.80790   0.62321   0.74653   1.000
    C54     C    0.08587   0.44571   0.74995   1.000
    C55     C    0.58688   0.44576   0.75030   1.000
    C56     C    0.27887   0.75986   0.65821   1.000
    C57     C    0.78056   0.75936   0.65664   1.000
    C58     C    0.39068   0.75426   0.50718   1.000
    C59     C    0.89104   0.75386   0.50505   1.000
    C60     C    0.31909   0.74714   0.37758   1.000
    C61     C    0.81791   0.74694   0.37630   1.000
    C62     C    0.03801   0.75211   0.55346   1.000
    C63     C    0.53797   0.75220   0.55400   1.000
    C64     C    0.48797   0.24030   0.34394   1.000
    C65     C    0.98623   0.24023   0.34255   1.000
    C66     C    0.01920   0.24604   0.49394   1.000
    C67     C    0.51914   0.24614   0.49590   1.000
    C68     C    0.37773   0.25381   0.62406   1.000
    C69     C    0.87890   0.25378   0.62299   1.000
    C70     C    0.19001   0.24991   0.44487   1.000
    C71     C    0.68864   0.25034   0.44588   1.000
    C72     C    0.25545   0.74292   0.09818   1.000
    C73     C    0.75482   0.74253   0.09924   1.000
    C74     C    0.31426   0.74667   0.01489   1.000
    C75     C    0.81429   0.74645   0.01629   1.000
    C76     C    0.27147   0.75169   0.94258   1.000
    C77     C    0.77228   0.75165   0.94349   1.000
    C78     C    0.17044   0.75364   0.95587   1.000
    C79     C    0.67133   0.75361   0.95605   1.000
    C80     C    0.11692   0.74875   0.04159   1.000
    C81     C    0.61710   0.74858   0.04148   1.000
    C82     C    0.11838   0.76010   0.88186   1.000
    C83     C    0.61988   0.76017   0.88166   1.000
    C84     C    0.17425   0.25711   0.90161   1.000
    C85     C    0.67530   0.25665   0.90144   1.000
    C86     C    0.19368   0.25333   0.98485   1.000
    C87     C    0.69480   0.25288   0.98464   1.000
    C88     C    0.11759   0.24827   0.05727   1.000
    C89     C    0.61862   0.24838   0.05712   1.000
    C90     C    0.02409   0.24635   0.04410   1.000
    C91     C    0.52492   0.24708   0.04403   1.000
    C92     C    0.01052   0.25132   0.95843   1.000
    C93     C    0.51125   0.25198   0.95842   1.000
    C94     C    0.43930   0.24119   0.11820   1.000
    C95     C    0.93848   0.23986   0.11812   1.000
    C96     C    0.19582   0.09854   0.25716   1.000
    C97     C    0.69486   0.09752   0.25700   1.000
    C98     C    0.17810   0.01538   0.25342   1.000
    C99     C    0.67811   0.01401   0.25336   1.000
    C100    C    0.25663   0.94294   0.24820   1.000
    C101    C    0.75725   0.94209   0.24827   1.000
    C102    C    0.35117   0.95600   0.24619   1.000
    C103    C    0.85140   0.95601   0.24625   1.000
    C104    C    0.36248   0.04157   0.25103   1.000
    C105    C    0.86170   0.04188   0.25113   1.000
    C106    C    0.43982   0.88184   0.23973   1.000
    C107    C    0.94091   0.88266   0.23980   1.000
    C108    C    0.37374   0.90079   0.74256   1.000
    C109    C    0.87233   0.90090   0.74286   1.000
    C110    C    0.31238   0.98377   0.74637   1.000
    C111    C    0.81113   0.98392   0.74652   1.000
    C112    C    0.35198   0.05654   0.75103   1.000
    C113    C    0.85088   0.05662   0.75102   1.000
    C114    C    0.45214   0.04399   0.75231   1.000
    C115    C    0.95103   0.04397   0.75235   1.000
    C116    C    0.00757   0.95852   0.74736   1.000
    C117    C    0.50881   0.95859   0.74724   1.000
    C118    C    0.50055   0.11834   0.75851   1.000
    C119    C    0.99947   0.11827   0.75849   1.000
    C120    C    0.44828   0.59847   0.24333   1.000
    C121    C    0.94982   0.59834   0.24250   1.000
    C122    C    0.42881   0.51528   0.24703   1.000
    C123    C    0.93032   0.51516   0.24612   1.000
    C124    C    0.50504   0.44284   0.25143   1.000
    C125    C    0.00000   0.44273   0.25100   1.000
    C126    C    0.09974   0.45584   0.25345   1.000
    C127    C    0.59876   0.45594   0.25263   1.000
    C128    C    0.11339   0.54143   0.24862   1.000
    C129    C    0.61241   0.54153   0.24770   1.000
    C130    C    0.18525   0.38177   0.26006   1.000
    C131    C    0.68437   0.38180   0.25860   1.000
    C132    C    0.36962   0.40191   0.75753   1.000
    C133    C    0.86872   0.40164   0.75711   1.000
    C134    C    0.31080   0.48514   0.75364   1.000
    C135    C    0.80981   0.48484   0.75340   1.000
    C136    C    0.35361   0.55742   0.74843   1.000
    C137    C    0.85248   0.55718   0.74835   1.000
    C138    C    0.45464   0.54416   0.74647   1.000
    C139    C    0.95352   0.54401   0.74632   1.000
    C140    C    0.00715   0.45837   0.75116   1.000
    C141    C    0.50816   0.45850   0.75148   1.000
    C142    C    0.00539   0.61811   0.73985   1.000
    C143    C    0.50672   0.61817   0.73989   1.000
    C144    C    0.25131   0.75748   0.59922   1.000
    C145    C    0.75227   0.75716   0.59802   1.000
    C146    C    0.31265   0.75377   0.51624   1.000
    C147    C    0.81292   0.75346   0.51471   1.000
    C148    C    0.27308   0.74911   0.44343   1.000
    C149    C    0.77248   0.74894   0.44239   1.000
    C150    C    0.17297   0.74771   0.45597   1.000
    C151    C    0.67225   0.74765   0.45568   1.000
    C152    C    0.11626   0.75269   0.54140   1.000
    C153    C    0.61629   0.75267   0.54139   1.000
    C154    C    0.12461   0.74152   0.38160   1.000
    C155    C    0.62326   0.74145   0.38170   1.000
    C156    C    0.42900   0.24302   0.40230   1.000
    C157    C    0.92778   0.24311   0.40132   1.000
    C158    C    0.44574   0.24685   0.48584   1.000
    C159    C    0.94553   0.24684   0.48440   1.000
    C160    C    0.36660   0.25189   0.55781   1.000
    C161    C    0.86702   0.25193   0.55698   1.000
    C162    C    0.27247   0.25380   0.54389   1.000
    C163    C    0.77248   0.25396   0.54396   1.000
    C164    C    0.26220   0.24883   0.45800   1.000
    C165    C    0.76114   0.24913   0.45837   1.000
    C166    C    0.18290   0.26020   0.61719   1.000
    C167    C    0.68385   0.26035   0.61816   1.000
    C168    C    0.15804   0.74309   0.11150   1.000
    C169    C    0.65747   0.74275   0.11183   1.000
    C170    C    0.08348   0.25693   0.88842   1.000
    C171    C    0.58437   0.25697   0.88836   1.000
    C172    C    0.28676   0.11161   0.25675   1.000
    C173    C    0.78543   0.11141   0.25684   1.000
    C174    C    0.47113   0.88820   0.74219   1.000
    C175    C    0.96975   0.88821   0.74242   1.000
    C176    C    0.04052   0.61147   0.24292   1.000
    C177    C    0.53924   0.61157   0.24286   1.000
    C178    C    0.46703   0.38861   0.75729   1.000
    C179    C    0.96613   0.38843   0.75685   1.000
    C180    C    0.15394   0.75776   0.61180   1.000
    C181    C    0.65480   0.75760   0.61134   1.000
    C182    C    0.33845   0.24316   0.38844   1.000
    C183    C    0.83683   0.24344   0.38829   1.000
    C184    C    0.16885   0.77042   0.80399   1.000
    C185    C    0.67069   0.77040   0.80392   1.000
    C186    C    0.02923   0.75517   0.89696   1.000
    C187    C    0.53069   0.75534   0.89642   1.000
    C188    C    0.45669   0.22961   0.19585   1.000
    C189    C    0.95518   0.22966   0.19604   1.000
    C190    C    0.35479   0.24767   0.10340   1.000
    C191    C    0.85450   0.24464   0.10284   1.000
    C192    C    0.42785   0.80400   0.22954   1.000
    C193    C    0.93002   0.80439   0.22965   1.000
    C194    C    0.02196   0.89890   0.24459   1.000
    C195    C    0.52158   0.89676   0.24456   1.000
    C196    C    0.44448   0.19593   0.77031   1.000
    C197    C    0.94338   0.19590   0.77021   1.000
    C198    C    0.09127   0.10352   0.75210   1.000
    C199    C    0.59241   0.10358   0.75211   1.000
    C200    C    0.16840   0.30392   0.27032   1.000
    C201    C    0.66694   0.30418   0.27028   1.000
    C202    C    0.26927   0.39694   0.25531   1.000
    C203    C    0.76887   0.39660   0.25214   1.000
    C204    C    0.45632   0.69600   0.72950   1.000
    C205    C    0.95482   0.69591   0.72957   1.000
    C206    C    0.09454   0.60315   0.74476   1.000
    C207    C    0.59589   0.60307   0.74481   1.000
    C208    C    0.18068   0.72974   0.30396   1.000
    C209    C    0.67905   0.72964   0.30397   1.000
    C210    C    0.03275   0.74792   0.39633   1.000
    C211    C    0.53140   0.74783   0.39675   1.000
    C212    C    0.19368   0.27035   0.69551   1.000
    C213    C    0.69581   0.27051   0.69601   1.000
    C214    C    0.10189   0.25538   0.60080   1.000
    C215    C    0.60209   0.25547   0.60323   1.000
    O216    O    0.35346   0.74631   0.01007   1.000
    O217    O    0.85346   0.74608   0.01175   1.000
    O218    O    0.28485   0.74479   0.05654   1.000
    O219    O    0.29286   0.74918   0.97874   1.000
    O220    O    0.78456   0.74449   0.05776   1.000
    O221    O    0.79328   0.74905   0.97989   1.000
    O222    O    0.57776   0.74916   0.04749   1.000
    O223    O    0.63728   0.74567   0.07666   1.000
    O224    O    0.64421   0.75110   0.99877   1.000
    O225    O    0.07756   0.74933   0.04796   1.000
    O226    O    0.13748   0.74592   0.07655   1.000
    O227    O    0.14368   0.75119   0.99873   1.000
    O228    O    0.57177   0.24773   0.05057   1.000
    O229    O    0.48211   0.24414   0.08112   1.000
    O230    O    0.51809   0.24953   0.00123   1.000
    O231    O    0.07084   0.24731   0.05069   1.000
    O232    O    0.98129   0.24311   0.08111   1.000
    O233    O    0.01731   0.24884   0.00126   1.000
    O234    O    0.62499   0.24737   0.09013   1.000
    O235    O    0.65671   0.25063   0.02088   1.000
    O236    O    0.12394   0.24730   0.09029   1.000
    O237    O    0.15563   0.25080   0.02106   1.000
    O238    O    0.20674   0.74300   0.10484   1.000
    O239    O    0.27019   0.74155   0.12749   1.000
    O240    O    0.70615   0.74264   0.10554   1.000
    O241    O    0.76925   0.74106   0.12873   1.000
    O242    O    0.89649   0.24225   0.11048   1.000
    O243    O    0.39705   0.24443   0.11080   1.000
    O244    O    0.11389   0.74000   0.17419   1.000
    O245    O    0.61283   0.73982   0.17436   1.000
    O246    O    0.94683   0.23476   0.15708   1.000
    O247    O    0.44799   0.23540   0.15702   1.000
    O248    O    0.38469   0.23328   0.22948   1.000
    O249    O    0.88303   0.23327   0.22952   1.000
    O250    O    0.49802   0.77045   0.23321   1.000
    O251    O    0.43383   0.84292   0.23463   1.000
    O252    O    0.99988   0.77065   0.23326   1.000
    O253    O    0.93546   0.84353   0.23472   1.000
    O254    O    0.05513   0.67419   0.23989   1.000
    O255    O    0.12521   0.73332   0.27041   1.000
    O256    O    0.55371   0.67423   0.23988   1.000
    O257    O    0.62362   0.73327   0.27043   1.000
    O258    O    0.92128   0.62769   0.24105   1.000
    O259    O    0.48070   0.88930   0.24214   1.000
    O260    O    0.39549   0.91892   0.24296   1.000
    O261    O    0.98143   0.89078   0.24220   1.000
    O262    O    0.89615   0.91934   0.24303   1.000
    O263    O    0.41962   0.62782   0.24225   1.000
    O264    O    0.99517   0.60491   0.24271   1.000
    O265    O    0.94007   0.55675   0.24431   1.000
    O266    O    0.49376   0.60502   0.24310   1.000
    O267    O    0.57582   0.57655   0.24528   1.000
    O268    O    0.07696   0.57645   0.24577   1.000
    O269    O    0.43855   0.55688   0.24518   1.000
    O270    O    0.89370   0.51042   0.24562   1.000
    O271    O    0.96516   0.47894   0.24856   1.000
    O272    O    0.30390   0.94947   0.24719   1.000
    O273    O    0.35682   0.99878   0.24861   1.000
    O274    O    0.80432   0.94905   0.24726   1.000
    O275    O    0.85655   0.99894   0.24869   1.000
    O276    O    0.25071   0.90994   0.24729   1.000
    O277    O    0.75168   0.90897   0.24734   1.000
    O278    O    0.39211   0.51051   0.24691   1.000
    O279    O    0.46693   0.47906   0.24923   1.000
    O280    O    0.64846   0.54778   0.24794   1.000
    O281    O    0.60558   0.49873   0.25017   1.000
    O282    O    0.21737   0.97916   0.25081   1.000
    O283    O    0.71768   0.97805   0.25082   1.000
    O284    O    0.14933   0.54769   0.24922   1.000
    O285    O    0.10656   0.49864   0.25104   1.000
    O286    O    0.39872   0.04782   0.25042   1.000
    O287    O    0.89781   0.04845   0.25054   1.000
    O288    O    0.99679   0.40972   0.25207   1.000
    O289    O    0.04987   0.44928   0.25223   1.000
    O290    O    0.32462   0.07659   0.25389   1.000
    O291    O    0.82357   0.07664   0.25399   1.000
    O292    O    0.55190   0.44939   0.25203   1.000
    O293    O    0.49867   0.40984   0.25242   1.000
    O294    O    0.72661   0.38920   0.25537   1.000
    O295    O    0.64156   0.41887   0.25562   1.000
    O296    O    0.64140   0.00893   0.25375   1.000
    O297    O    0.68648   0.05577   0.25518   1.000
    O298    O    0.14125   0.01064   0.25384   1.000
    O299    O    0.18696   0.05696   0.25529   1.000
    O300    O    0.14249   0.41880   0.25676   1.000
    O301    O    0.22726   0.38935   0.25768   1.000
    O302    O    0.24129   0.10507   0.25695   1.000
    O303    O    0.29973   0.17428   0.25993   1.000
    O304    O    0.74014   0.10447   0.25692   1.000
    O305    O    0.79816   0.17414   0.25992   1.000
    O306    O    0.66536   0.12669   0.25842   1.000
    O307    O    0.16657   0.12790   0.25858   1.000
    O308    O    0.67565   0.34299   0.26444   1.000
    O309    O    0.17683   0.34284   0.26519   1.000
    O310    O    0.73891   0.27053   0.26664   1.000
    O311    O    0.82386   0.24016   0.32565   1.000
    O312    O    0.24055   0.27043   0.26672   1.000
    O313    O    0.32557   0.24005   0.32578   1.000
    O314    O    0.15264   0.73563   0.34278   1.000
    O315    O    0.65116   0.73555   0.34284   1.000
    O316    O    0.95700   0.24167   0.37194   1.000
    O317    O    0.45849   0.24166   0.37312   1.000
    O318    O    0.79520   0.74794   0.40935   1.000
    O319    O    0.29609   0.74813   0.41051   1.000
    O320    O    0.07868   0.74472   0.38897   1.000
    O321    O    0.14879   0.74461   0.41879   1.000
    O322    O    0.57733   0.74464   0.38923   1.000
    O323    O    0.64775   0.74455   0.41869   1.000
    O324    O    0.88230   0.24327   0.39481   1.000
    O325    O    0.79899   0.24629   0.42333   1.000
    O326    O    0.38373   0.24309   0.39537   1.000
    O327    O    0.30032   0.24599   0.42322   1.000
    O328    O    0.93665   0.24498   0.44286   1.000
    O329    O    0.43737   0.24493   0.44407   1.000
    O330    O    0.72236   0.74830   0.44904   1.000
    O331    O    0.79270   0.75120   0.47855   1.000
    O332    O    0.22302   0.74841   0.44970   1.000
    O333    O    0.29287   0.75144   0.47983   1.000
    O334    O    0.22610   0.24937   0.45143   1.000
    O335    O    0.72489   0.24974   0.45213   1.000
    O336    O    0.64427   0.75016   0.49854   1.000
    O337    O    0.14461   0.75020   0.49868   1.000
    O338    O    0.26734   0.25131   0.50094   1.000
    O339    O    0.76681   0.25155   0.50116   1.000
    O340    O    0.98236   0.24644   0.48917   1.000
    O341    O    0.90627   0.24939   0.52069   1.000
    O342    O    0.48244   0.24649   0.49087   1.000
    O343    O    0.40617   0.24937   0.52182   1.000
    O344    O    0.85198   0.75366   0.50988   1.000
    O345    O    0.35167   0.75401   0.51171   1.000
    O346    O    0.78259   0.75531   0.55636   1.000
    O347    O    0.28198   0.75562   0.55773   1.000
    O348    O    0.57713   0.75243   0.54770   1.000
    O349    O    0.63554   0.75514   0.57637   1.000
    O350    O    0.07714   0.75240   0.54743   1.000
    O351    O    0.13510   0.75523   0.57660   1.000
    O352    O    0.31954   0.25284   0.55085   1.000
    O353    O    0.22769   0.25700   0.58054   1.000
    O354    O    0.81975   0.25294   0.55047   1.000
    O355    O    0.72816   0.25715   0.58106   1.000
    O356    O    0.87296   0.25286   0.58999   1.000
    O357    O    0.37217   0.25285   0.59093   1.000
    O358    O    0.70353   0.75738   0.60468   1.000
    O359    O    0.76641   0.75826   0.62733   1.000
    O360    O    0.20262   0.75762   0.60551   1.000
    O361    O    0.26509   0.75867   0.62871   1.000
    O362    O    0.14240   0.25779   0.60900   1.000
    O363    O    0.64297   0.25791   0.61070   1.000
    O364    O    0.60916   0.76037   0.67404   1.000
    O365    O    0.10785   0.76046   0.67431   1.000
    O366    O    0.18829   0.26527   0.65635   1.000
    O367    O    0.68983   0.26543   0.65709   1.000
    O368    O    0.12385   0.26673   0.72929   1.000
    O369    O    0.62559   0.26681   0.72953   1.000
    O370    O    0.50992   0.72957   0.73312   1.000
    O371    O    0.48152   0.65708   0.73470   1.000
    O372    O    0.00829   0.72954   0.73320   1.000
    O373    O    0.98010   0.65701   0.73471   1.000
    O374    O    0.51732   0.82567   0.73946   1.000
    O375    O    0.61710   0.76677   0.77033   1.000
    O376    O    0.01575   0.82569   0.73962   1.000
    O377    O    0.11530   0.76679   0.77041   1.000
    O378    O    0.04996   0.61063   0.74230   1.000
    O379    O    0.97945   0.58106   0.74308   1.000
    O380    O    0.55131   0.61062   0.74235   1.000
    O381    O    0.48068   0.58116   0.74318   1.000
    O382    O    0.35994   0.87132   0.74138   1.000
    O383    O    0.85844   0.87145   0.74177   1.000
    O384    O    0.42243   0.89450   0.74238   1.000
    O385    O    0.48997   0.92340   0.74472   1.000
    O386    O    0.92104   0.89455   0.74264   1.000
    O387    O    0.98866   0.92337   0.74489   1.000
    O388    O    0.34306   0.94228   0.74447   1.000
    O389    O    0.84173   0.94241   0.74469   1.000
    O390    O    0.27335   0.98828   0.74616   1.000
    O391    O    0.77210   0.98851   0.74631   1.000
    O392    O    0.90300   0.55060   0.74734   1.000
    O393    O    0.98033   0.50119   0.74874   1.000
    O394    O    0.33218   0.02015   0.74870   1.000
    O395    O    0.33138   0.59044   0.74742   1.000
    O396    O    0.40413   0.55079   0.74745   1.000
    O397    O    0.48140   0.50133   0.74898   1.000
    O398    O    0.83101   0.02027   0.74877   1.000
    O399    O    0.83019   0.59020   0.74744   1.000
    O400    O    0.54794   0.95256   0.74748   1.000
    O401    O    0.48048   0.00129   0.74977   1.000
    O402    O    0.04671   0.95245   0.74761   1.000
    O403    O    0.97930   0.00125   0.74985   1.000
    O404    O    0.83115   0.52101   0.75088   1.000
    O405    O    0.33221   0.52128   0.75104   1.000
    O406    O    0.04651   0.45204   0.75056   1.000
    O407    O    0.54752   0.45213   0.75089   1.000
    O408    O    0.90096   0.05030   0.75168   1.000
    O409    O    0.82794   0.08956   0.75199   1.000
    O410    O    0.40206   0.05027   0.75167   1.000
    O411    O    0.32897   0.08946   0.75208   1.000
    O412    O    0.98664   0.42340   0.75400   1.000
    O413    O    0.48759   0.42355   0.75439   1.000
    O414    O    0.04537   0.11090   0.75530   1.000
    O415    O    0.54648   0.11096   0.75531   1.000
    O416    O    0.47634   0.08117   0.75541   1.000
    O417    O    0.97525   0.08112   0.75542   1.000
    O418    O    0.77061   0.48965   0.75379   1.000
    O419    O    0.83927   0.44324   0.75526   1.000
    O420    O    0.27159   0.48996   0.75397   1.000
    O421    O    0.34021   0.44352   0.75558   1.000
    O422    O    0.91743   0.39503   0.75698   1.000
    O423    O    0.01007   0.32578   0.75996   1.000
    O424    O    0.85402   0.37231   0.75845   1.000
    O425    O    0.41832   0.39526   0.75741   1.000
    O426    O    0.51120   0.32586   0.76017   1.000
    O427    O    0.35488   0.37259   0.75899   1.000
    O428    O    0.97143   0.15709   0.76435   1.000
    O429    O    0.47251   0.15714   0.76441   1.000
    O430    O    0.49993   0.22952   0.76668   1.000
    O431    O    0.56987   0.26004   0.82571   1.000
    O432    O    0.99870   0.22951   0.76664   1.000
    O433    O    0.06875   0.26003   0.82575   1.000
    O434    O    0.64529   0.76528   0.84279   1.000
    O435    O    0.14361   0.76526   0.84293   1.000
    O436    O    0.70392   0.25782   0.87208   1.000
    O437    O    0.20284   0.25849   0.87227   1.000
    O438    O    0.29371   0.75264   0.90954   1.000
    O439    O    0.79479   0.75264   0.91057   1.000
    O440    O    0.57529   0.75775   0.88904   1.000
    O441    O    0.64560   0.75689   0.91886   1.000
    O442    O    0.07380   0.75764   0.88941   1.000
    O443    O    0.14441   0.75687   0.91886   1.000
    O444    O    0.62984   0.25681   0.89490   1.000
    O445    O    0.54781   0.25448   0.92339   1.000
    O446    O    0.12886   0.25702   0.89502   1.000
    O447    O    0.04700   0.25413   0.92342   1.000
    O448    O    0.68505   0.25477   0.94304   1.000
    O449    O    0.18396   0.25522   0.94323   1.000
    O450    O    0.22096   0.75266   0.94923   1.000
    O451    O    0.72180   0.75263   0.94977   1.000
    O452    O    0.97459   0.25081   0.95214   1.000
    O453    O    0.47522   0.25167   0.95217   1.000
    O454    O    0.73150   0.25305   0.98940   1.000
    O455    O    0.23031   0.25374   0.98962   1.000
loop_
    _geom_bond_atom_site_label_1
    _geom_bond_atom_site_label_2
    _geom_bond_distance
    _geom_bond_site_symmetry_2
    _ccdc_geom_bond_type
    C10    O216      0.54466      .   S
    C74    O216      0.54466      .   S
    C11    O217      0.54458      .   S
    C75    O217      0.54458      .   S
    C74    O218      0.69545      .   S
    C72    O218      0.69545      .   S
    C74    O219      0.69756  1_554   S
    C76    O219      0.69756      .   S
    C75    O220      0.69538      .   S
    C73    O220      0.69538      .   S
    C75    O221      0.69763  1_554   S
    C77    O221      0.69763      .   S
    C81    O222      0.54447      .   S
    C15    O222      0.54447      .   S
    C81    O223      0.67272      .   S
    C169   O223      0.67272      .   S
    C81    O224      0.69830  1_554   S
    C79    O224      0.69830      .   S
    C80    O225      0.54443      .   S
    C14    O225      0.54443      .   S
    C80    O226      0.67286      .   S
    C168   O226      0.67286      .   S
    C80    O227      0.69833  1_554   S
    C78    O227      0.69833      .   S
    C91    O228      0.69949      .   S
    C89    O228      0.69949      .   S
    C91    O229      0.74994      .   S
    C94    O229      0.74994      .   S
    C91    O230      0.69826      .   S
    C93    O230      0.69826  1_556   S
    C90    O231      0.69948      .   S
    C88    O231      0.69948      .   S
    C90    O232      0.75019  1_455   S
    C95    O232      0.75019      .   S
    C90    O233      0.69846      .   S
    C92    O233      0.69846  1_556   S
    C89    O234      0.54477      .   S
    C21    O234      0.54477      .   S
    C89    O235      0.69744      .   S
    C87    O235      0.69744  1_556   S
    C88    O236      0.54481      .   S
    C20    O236      0.54481      .   S
    C88    O237      0.69755      .   S
    C86    O237      0.69755  1_556   S
    C72    O238      0.67703      .   S
    C168   O238      0.67703      .   S
    C72    O239      0.54460      .   S
    C8     O239      0.54460      .   S
    C73    O240      0.67701      .   S
    C169   O240      0.67701      .   S
    C73    O241      0.54456      .   S
    C9     O241      0.54456      .   S
    C191   O242      0.62826      .   S
    C95    O242      0.62826      .   S
    C190   O243      0.62840      .   S
    C94    O243      0.62840      .   S
    C168   O244      1.04671      .   S
    C4     O244      1.04671      .   S
    C169   O245      1.04726      .   S
    C5     O245      1.04726      .   S
    C95    O246      0.64660      .   S
    C189   O246      0.64660      .   S
    C94    O247      0.64680      .   S
    C188   O247      0.64680      .   S
    C188   O248      1.03181      .   S
    C2     O248      1.03181      .   S
    C189   O249      1.03313      .   S
    C3     O249      1.03313      .   S
    C192   O250      1.03161      .   S
    C5     O250      1.03161      .   S
    C192   O251      0.64681      .   S
    C106   O251      0.64681      .   S
    C193   O252      1.02846      .   S
    C4     O252      1.02846  1_455   S
    C193   O253      0.64727      .   S
    C107   O253      0.64727      .   S
    C4     O254      1.04797      .   S
    C176   O254      1.04797      .   S
    C4     O255      1.03342      .   S
    C208   O255      1.03342      .   S
    C5     O256      1.04637      .   S
    C177   O256      1.04637      .   S
    C5     O257      1.03288      .   S
    C209   O257      1.03288      .   S
    C41    O258      0.54467      .   S
    C121   O258      0.54467      .   S
    C106   O259      0.62835      .   S
    C195   O259      0.62835      .   S
    C106   O260      0.75004      .   S
    C102   O260      0.75004      .   S
    C107   O261      0.62752      .   S
    C194   O261      0.62752  1_455   S
    C107   O262      0.75026      .   S
    C103   O262      0.75026      .   S
    C40    O263      0.54460      .   S
    C120   O263      0.54460      .   S
    C121   O264      0.67693      .   S
    C176   O264      0.67693  1_455   S
    C121   O265      0.69548      .   S
    C123   O265      0.69548      .   S
    C177   O266      0.67710      .   S
    C120   O266      0.67710      .   S
    C177   O267      0.67289      .   S
    C129   O267      0.67289      .   S
    C176   O268      0.67288      .   S
    C128   O268      0.67288      .   S
    C120   O269      0.69537      .   S
    C122   O269      0.69537      .   S
    C43    O270      0.54469      .   S
    C123   O270      0.54469      .   S
    C123   O271      0.67083      .   S
    C125   O271      0.67083  1_455   S
    C102   O272      0.69960      .   S
    C100   O272      0.69960      .   S
    C102   O273      0.69811      .   S
    C104   O273      0.69811  1_545   S
    C103   O274      0.69942      .   S
    C101   O274      0.69942      .   S
    C103   O275      0.69807      .   S
    C105   O275      0.69807  1_545   S
    C28    O276      0.54470      .   S
    C100   O276      0.54470      .   S
    C29    O277      0.54473      .   S
    C101   O277      0.54473      .   S
    C42    O278      0.54459      .   S
    C122   O278      0.54459      .   S
    C122   O279      0.69737      .   S
    C124   O279      0.69737      .   S
    C129   O280      0.54446      .   S
    C47    O280      0.54446      .   S
    C129   O281      0.69815      .   S
    C127   O281      0.69815      .   S
    C100   O282      0.69727      .   S
    C98    O282      0.69727  1_545   S
    C101   O283      0.69738      .   S
    C99    O283      0.69738  1_545   S
    C128   O284      0.54442      .   S
    C46    O284      0.54442      .   S
    C128   O285      0.69825      .   S
    C126   O285      0.69825      .   S
    C30    O286      0.54445      .   S
    C104   O286      0.54445      .   S
    C31    O287      0.54446      .   S
    C105   O287      0.54446      .   S
    C125   O288      0.52950  1_455   S
    C45    O288      0.52950      .   S
    C125   O289      0.74431      .   S
    C126   O289      0.74431      .   S
    C104   O290      0.67283      .   S
    C172   O290      0.67283      .   S
    C105   O291      0.67273      .   S
    C173   O291      0.67273      .   S
    C124   O292      0.69948      .   S
    C127   O292      0.69948      .   S
    C124   O293      0.54475      .   S
    C44    O293      0.54475      .   S
    C203   O294      0.62835      .   S
    C131   O294      0.62835      .   S
    C127   O295      0.75000      .   S
    C131   O295      0.75000      .   S
    C99    O296      0.54465      .   S
    C27    O296      0.54465      .   S
    C99    O297      0.69531      .   S
    C97    O297      0.69531      .   S
    C98    O298      0.54461      .   S
    C26    O298      0.54461      .   S
    C98    O299      0.69534      .   S
    C96    O299      0.69534      .   S
    C126   O300      0.75028      .   S
    C130   O300      0.75028      .   S
    C202   O301      0.62829      .   S
    C130   O301      0.62829      .   S
    C172   O302      0.67707      .   S
    C96    O302      0.67707      .   S
    C172   O303      1.04661      .   S
    C2     O303      1.04661      .   S
    C173   O304      0.67718      .   S
    C97    O304      0.67718      .   S
    C173   O305      1.04608      .   S
    C3     O305      1.04608      .   S
    C97    O306      0.54458      .   S
    C25    O306      0.54458      .   S
    C96    O307      0.54466      .   S
    C24    O307      0.54466      .   S
    C131   O308      0.64689      .   S
    C201   O308      0.64689      .   S
    C130   O309      0.64658      .   S
    C200   O309      0.64658      .   S
    C3     O310      1.03176      .   S
    C201   O310      1.03176      .   S
    C3     O311      1.04629      .   S
    C183   O311      1.04629      .   S
    C2     O312      1.03320      .   S
    C200   O312      1.03320      .   S
    C2     O313      1.04569      .   S
    C182   O313      1.04569      .   S
    C208   O314      0.64683      .   S
    C154   O314      0.64683      .   S
    C209   O315      0.64670      .   S
    C155   O315      0.64670      .   S
    C65    O316      0.54460      .   S
    C157   O316      0.54460      .   S
    C64    O317      0.54465      .   S
    C156   O317      0.54465      .   S
    C61    O318      0.54474      .   S
    C149   O318      0.54474      .   S
    C60    O319      0.54475      .   S
    C148   O319      0.54475      .   S
    C154   O320      0.62842      .   S
    C210   O320      0.62842      .   S
    C154   O321      0.74987      .   S
    C150   O321      0.74987      .   S
    C155   O322      0.62837      .   S
    C211   O322      0.62837      .   S
    C155   O323      0.75012      .   S
    C151   O323      0.75012      .   S
    C183   O324      0.67705      .   S
    C157   O324      0.67705      .   S
    C183   O325      0.67280      .   S
    C165   O325      0.67280      .   S
    C182   O326      0.67703      .   S
    C156   O326      0.67703      .   S
    C182   O327      0.67266      .   S
    C164   O327      0.67266      .   S
    C157   O328      0.69472      .   S
    C159   O328      0.69472      .   S
    C156   O329      0.69547      .   S
    C158   O329      0.69547      .   S
    C149   O330      0.69956      .   S
    C151   O330      0.69956      .   S
    C149   O331      0.69743      .   S
    C147   O331      0.69743      .   S
    C148   O332      0.69947      .   S
    C150   O332      0.69947      .   S
    C148   O333      0.69741      .   S
    C146   O333      0.69741      .   S
    C70    O334      0.54445      .   S
    C164   O334      0.54445      .   S
    C71    O335      0.54445      .   S
    C165   O335      0.54445      .   S
    C151   O336      0.69817      .   S
    C153   O336      0.69817      .   S
    C150   O337      0.69817      .   S
    C152   O337      0.69817      .   S
    C164   O338      0.69809      .   S
    C162   O338      0.69809      .   S
    C165   O339      0.69818      .   S
    C163   O339      0.69818      .   S
    C159   O340      0.54465      .   S
    C66    O340      0.54465  1_455   S
    C159   O341      0.69784      .   S
    C161   O341      0.69784      .   S
    C158   O342      0.54440      .   S
    C67    O342      0.54440      .   S
    C158   O343      0.69753      .   S
    C160   O343      0.69753      .   S
    C59    O344      0.54465      .   S
    C147   O344      0.54465      .   S
    C58    O345      0.54458      .   S
    C146   O345      0.54458      .   S
    C147   O346      0.69544      .   S
    C145   O346      0.69544      .   S
    C146   O347      0.69538      .   S
    C144   O347      0.69538      .   S
    C153   O348      0.54447      .   S
    C63    O348      0.54447      .   S
    C153   O349      0.67282      .   S
    C181   O349      0.67282      .   S
    C152   O350      0.54441      .   S
    C62    O350      0.54441      .   S
    C152   O351      0.67268      .   S
    C180   O351      0.67268      .   S
    C162   O352      0.69942      .   S
    C160   O352      0.69942      .   S
    C162   O353      0.75027      .   S
    C166   O353      0.75027      .   S
    C163   O354      0.69952      .   S
    C161   O354      0.69952      .   S
    C163   O355      0.75003      .   S
    C167   O355      0.75003      .   S
    C161   O356      0.54477      .   S
    C69    O356      0.54477      .   S
    C160   O357      0.54471      .   S
    C68    O357      0.54471      .   S
    C145   O358      0.67702      .   S
    C181   O358      0.67702      .   S
    C145   O359      0.54457      .   S
    C57    O359      0.54457      .   S
    C144   O360      0.67703      .   S
    C180   O360      0.67703      .   S
    C144   O361      0.54459      .   S
    C56    O361      0.54459      .   S
    C214   O362      0.62775      .   S
    C166   O362      0.62775      .   S
    C215   O363      0.62841      .   S
    C167   O363      0.62841      .   S
    C181   O364      1.04680      .   S
    C1     O364      1.04680      .   S
    C180   O365      1.04711      .   S
    C0     O365      1.04711      .   S
    C166   O366      0.64720      .   S
    C212   O366      0.64720      .   S
    C167   O367      0.64670      .   S
    C213   O367      0.64670      .   S
    C212   O368      1.02816      .   S
    C6     O368      1.02816      .   S
    C213   O369      1.03211      .   S
    C7     O369      1.03211      .   S
    C204   O370      1.03280      .   S
    C1     O370      1.03280      .   S
    C204   O371      0.64661      .   S
    C143   O371      0.64661      .   S
    C205   O372      1.03185  1_655   S
    C0     O372      1.03185      .   S
    C205   O373      0.64672      .   S
    C142   O373      0.64672  1_455   S
    C1     O374      1.04808      .   S
    C174   O374      1.04808      .   S
    C1     O375      1.03286      .   S
    C185   O375      1.03286      .   S
    C0     O376      1.04680      .   S
    C175   O376      1.04680  1_655   S
    C0     O377      1.03220      .   S
    C184   O377      1.03220      .   S
    C142   O378      0.62835      .   S
    C206   O378      0.62835      .   S
    C142   O379      0.75002  1_455   S
    C139   O379      0.75002      .   S
    C143   O380      0.62840      .   S
    C207   O380      0.62840      .   S
    C143   O381      0.75030      .   S
    C138   O381      0.75030      .   S
    C32    O382      0.54454      .   S
    C108   O382      0.54454      .   S
    C33    O383      0.54457      .   S
    C109   O383      0.54457      .   S
    C174   O384      0.67705      .   S
    C108   O384      0.67705      .   S
    C174   O385      0.67270      .   S
    C117   O385      0.67270      .   S
    C175   O386      0.67706      .   S
    C109   O386      0.67706      .   S
    C175   O387      0.67259      .   S
    C116   O387      0.67259  1_455   S
    C108   O388      0.69549      .   S
    C110   O388      0.69549      .   S
    C109   O389      0.69540      .   S
    C111   O389      0.69540      .   S
    C34    O390      0.54464      .   S
    C110   O390      0.54464      .   S
    C35    O391      0.54456      .   S
    C111   O391      0.54456      .   S
    C139   O392      0.69957      .   S
    C137   O392      0.69957      .   S
    C139   O393      0.69813      .   S
    C140   O393      0.69813  1_455   S
    C110   O394      0.69740  1_565   S
    C112   O394      0.69740      .   S
    C52    O395      0.54472      .   S
    C136   O395      0.54472      .   S
    C138   O396      0.69958      .   S
    C136   O396      0.69958      .   S
    C138   O397      0.69821      .   S
    C141   O397      0.69821      .   S
    C111   O398      0.69731  1_565   S
    C113   O398      0.69731      .   S
    C53    O399      0.54472      .   S
    C137   O399      0.54472      .   S
    C117   O400      0.54439      .   S
    C39    O400      0.54439      .   S
    C117   O401      0.69806  1_565   S
    C114   O401      0.69806      .   S
    C116   O402      0.54445      .   S
    C38    O402      0.54445      .   S
    C116   O403      0.69798  1_465   S
    C115   O403      0.69798      .   S
    C137   O404      0.69738      .   S
    C135   O404      0.69738      .   S
    C136   O405      0.69744      .   S
    C134   O405      0.69744      .   S
    C54    O406      0.54446      .   S
    C140   O406      0.54446      .   S
    C55    O407      0.54443      .   S
    C141   O407      0.54443      .   S
    C113   O408      0.69944      .   S
    C115   O408      0.69944      .   S
    C113   O409      0.54474      .   S
    C37    O409      0.54474      .   S
    C112   O410      0.69952      .   S
    C114   O410      0.69952      .   S
    C112   O411      0.54475      .   S
    C36    O411      0.54475      .   S
    C140   O412      0.67274  1_455   S
    C179   O412      0.67274      .   S
    C141   O413      0.67282      .   S
    C178   O413      0.67282      .   S
    C198   O414      0.62800      .   S
    C119   O414      0.62800  1_655   S
    C199   O415      0.62847      .   S
    C118   O415      0.62847      .   S
    C114   O416      0.75009      .   S
    C118   O416      0.75009      .   S
    C115   O417      0.74987      .   S
    C119   O417      0.74987      .   S
    C135   O418      0.54458      .   S
    C51    O418      0.54458      .   S
    C135   O419      0.69529      .   S
    C133   O419      0.69529      .   S
    C134   O420      0.54482      .   S
    C50    O420      0.54482      .   S
    C134   O421      0.69543      .   S
    C132   O421      0.69543      .   S
    C179   O422      0.67698      .   S
    C133   O422      0.67698      .   S
    C179   O423      1.04543  1_655   S
    C6     O423      1.04543      .   S
    C133   O424      0.54467      .   S
    C49    O424      0.54467      .   S
    C178   O425      0.67697      .   S
    C132   O425      0.67697      .   S
    C178   O426      1.04743      .   S
    C7     O426      1.04743      .   S
    C132   O427      0.54463      .   S
    C48    O427      0.54463      .   S
    C119   O428      0.64698      .   S
    C197   O428      0.64698      .   S
    C118   O429      0.64669      .   S
    C196   O429      0.64669      .   S
    C7     O430      1.03363      .   S
    C196   O430      1.03363      .   S
    C7     O431      1.04604      .   S
    C171   O431      1.04604      .   S
    C6     O432      1.03238  1_455   S
    C197   O432      1.03238      .   S
    C6     O433      1.04773      .   S
    C170   O433      1.04773      .   S
    C185   O434      0.64672      .   S
    C83    O434      0.64672      .   S
    C184   O435      0.64676      .   S
    C82    O435      0.64676      .   S
    C17    O436      0.54456      .   S
    C85    O436      0.54456      .   S
    C16    O437      0.54465      .   S
    C84    O437      0.54465      .   S
    C12    O438      0.54473      .   S
    C76    O438      0.54473      .   S
    C13    O439      0.54474      .   S
    C77    O439      0.54474      .   S
    C83    O440      0.62846      .   S
    C187   O440      0.62846      .   S
    C83    O441      0.74993      .   S
    C79    O441      0.74993      .   S
    C82    O442      0.62832      .   S
    C186   O442      0.62832      .   S
    C82    O443      0.75022      .   S
    C78    O443      0.75022      .   S
    C171   O444      0.67707      .   S
    C85    O444      0.67707      .   S
    C171   O445      0.67285      .   S
    C93    O445      0.67285      .   S
    C170   O446      0.67716      .   S
    C84    O446      0.67716      .   S
    C170   O447      0.67284      .   S
    C92    O447      0.67284      .   S
    C85    O448      0.69540      .   S
    C87    O448      0.69540      .   S
    C84    O449      0.69549      .   S
    C86    O449      0.69549      .   S
    C76    O450      0.69958      .   S
    C78    O450      0.69958      .   S
    C77    O451      0.69950      .   S
    C79    O451      0.69950      .   S
    C23    O452      0.54417      .   S
    C92    O452      0.54417  1_455   S
    C22    O453      0.54446      .   S
    C93    O453      0.54446      .   S
    C87    O454      0.54460      .   S
    C19    O454      0.54460      .   S
    C86    O455      0.54465      .   S
    C18    O455      0.54465      .   S
