# CIF file generated by openbabel 2.4.90, see http://openbabel.sf.net
data_I
_chemical_name_common ''
_cell_length_a 14.233
_cell_length_b 15.7
_cell_length_c 15.696
_cell_angle_alpha 87.161
_cell_angle_beta 76.976
_cell_angle_gamma 76.979
_space_group_name_H-M_alt 'P 1'
_space_group_name_Hall 'P 1'
loop_
    _symmetry_equiv_pos_as_xyz
    x,y,z
loop_
    _atom_site_label
    _atom_site_type_symbol
    _atom_site_fract_x
    _atom_site_fract_y
    _atom_site_fract_z
    _atom_site_occupancy
    Zr0     Zr   0.06175   0.76317   0.73683   1.000
    Zr1     Zr   0.56351   0.76314   0.73674   1.000
    Zr2     Zr   0.31269   0.23695   0.26311   1.000
    Zr3     Zr   0.81088   0.23688   0.26300   1.000
    Zr4     Zr   0.06975   0.73691   0.23687   1.000
    Zr5     Zr   0.56819   0.73689   0.23689   1.000
    Zr6     Zr   0.05401   0.26312   0.76307   1.000
    Zr7     Zr   0.55537   0.26311   0.76306   1.000
    N8      N    0.20268   0.75093   0.98771   1.000
    O9      O    0.15899   0.75886   0.87906   1.000
    O10     O    0.15828   0.74546   0.08095   1.000
    N11     N    0.07070   0.24909   0.01217   1.000
    O12     O    0.06972   0.25456   0.91896   1.000
    O13     O    0.97687   0.24118   0.12084   1.000
    N14     N    0.57164   0.24941   0.01211   1.000
    O15     O    0.57076   0.25473   0.91891   1.000
    O16     O    0.47817   0.24135   0.12079   1.000
    N17     N    0.20345   0.75008   0.48818   1.000
    O18     O    0.16433   0.74170   0.37930   1.000
    O19     O    0.15565   0.75527   0.58125   1.000
    N20     N    0.30321   0.98791   0.24900   1.000
    O21     O    0.30147   0.08109   0.25447   1.000
    O22     O    0.40061   0.87918   0.24111   1.000
    N23     N    0.55199   0.48784   0.25043   1.000
    O24     O    0.55285   0.58104   0.24515   1.000
    O25     O    0.64545   0.37919   0.25853   1.000
    N26     N    0.92131   0.51215   0.74906   1.000
    O27     O    0.96480   0.62085   0.74113   1.000
    O28     O    0.96569   0.41897   0.75451   1.000
    N29     N    0.92041   0.01183   0.75007   1.000
    O30     O    0.96808   0.91876   0.74485   1.000
    O31     O    0.95955   0.12067   0.75836   1.000
    N32     N    0.70325   0.74990   0.48753   1.000
    O33     O    0.65620   0.75514   0.58079   1.000
    O34     O    0.66343   0.74159   0.37898   1.000
    N35     N    0.82042   0.25116   0.51201   1.000
    O36     O    0.72301   0.25899   0.62077   1.000
    O37     O    0.82214   0.24566   0.41883   1.000
    N38     N    0.80325   0.98765   0.24902   1.000
    O39     O    0.90156   0.87915   0.24114   1.000
    O40     O    0.80070   0.08090   0.25447   1.000
    N41     N    0.05272   0.48777   0.25061   1.000
    O42     O    0.05393   0.58098   0.24525   1.000
    O43     O    0.14664   0.37910   0.25866   1.000
    N44     N    0.32060   0.25105   0.51220   1.000
    O45     O    0.32309   0.24555   0.41899   1.000
    O46     O    0.22222   0.25889   0.62074   1.000
    N47     N    0.42241   0.51233   0.74927   1.000
    O48     O    0.46681   0.41909   0.75472   1.000
    O49     O    0.46616   0.62095   0.74120   1.000
    N50     N    0.42163   0.01179   0.74997   1.000
    O51     O    0.46947   0.91873   0.74472   1.000
    O52     O    0.46078   0.12066   0.75833   1.000
    N53     N    0.70312   0.75078   0.98823   1.000
    O54     O    0.65798   0.74530   0.08129   1.000
    O55     O    0.66011   0.75878   0.87928   1.000
loop_
    _geom_bond_atom_site_label_1
    _geom_bond_atom_site_label_2
    _geom_bond_distance
    _geom_bond_site_symmetry_2
    _ccdc_geom_bond_type
    N8     O9        1.93198      .   S
    Zr0    O9        2.87039      .   S
    N8     O10       1.46404  1_556   S
    Zr4    O10       2.49983      .   S
    N11    O12       1.46432  1_554   S
    Zr6    O12       2.50105      .   S
    N11    O13       1.93280  1_455   S
    Zr3    O13       2.87146      .   S
    N14    O15       1.46383  1_554   S
    Zr7    O15       2.49916      .   S
    N14    O16       1.93077      .   S
    Zr2    O16       2.86848      .   S
    N17    O18       1.93193      .   S
    Zr4    O18       2.86960      .   S
    N17    O19       1.46364      .   S
    Zr0    O19       2.49983      .   S
    N20    O21       1.46406  1_565   S
    Zr2    O21       2.49999      .   S
    N20    O22       1.93096      .   S
    Zr5    O22       2.86810      .   S
    N23    O24       1.46403      .   S
    Zr5    O24       2.49967      .   S
    N23    O25       1.93082      .   S
    Zr3    O25       2.86868      .   S
    N26    O27       1.93155      .   S
    Zr0    O27       2.86952  1_455   S
    N26    O28       1.46369      .   S
    Zr6    O28       2.49848  1_455   S
    N29    O30       1.46366  1_545   S
    Zr0    O30       2.49956  1_455   S
    N29    O31       1.93157      .   S
    Zr6    O31       2.86896  1_455   S
    N32    O33       1.46386      .   S
    Zr1    O33       2.49967      .   S
    N32    O34       1.93178      .   S
    Zr5    O34       2.87076      .   S
    N35    O36       1.93109      .   S
    Zr7    O36       2.86844      .   S
    N35    O37       1.46376      .   S
    Zr3    O37       2.49936      .   S
    N38    O39       1.93492      .   S
    Zr4    O39       2.87322  1_455   S
    N38    O40       1.46252  1_565   S
    Zr3    O40       2.49743      .   S
    N41    O42       1.46542      .   S
    Zr4    O42       2.50283      .   S
    N41    O43       1.93404      .   S
    Zr2    O43       2.87299      .   S
    N44    O45       1.46184      .   S
    Zr2    O45       2.49619      .   S
    N44    O46       1.93555      .   S
    Zr6    O46       2.87389      .   S
    N47    O48       1.46438      .   S
    Zr7    O48       2.50097      .   S
    N47    O49       1.93228      .   S
    Zr1    O49       2.87112      .   S
    N50    O51       1.46404  1_545   S
    Zr1    O51       2.50111      .   S
    N50    O52       1.93220      .   S
    Zr7    O52       2.87032      .   S
    N53    O54       1.46408  1_556   S
    Zr5    O54       2.50050      .   S
    N53    O55       1.93150      .   S
    Zr1    O55       2.86866      .   S
