# CIF file generated by openbabel 2.4.90, see http://openbabel.sf.net
data_I
_chemical_name_common 'VESTA_phase_1'
_cell_length_a 15.37
_cell_length_b 20.104
_cell_length_c 17.697
_cell_angle_alpha 90
_cell_angle_beta 89.987
_cell_angle_gamma 89.999
_space_group_name_H-M_alt 'P 1'
_space_group_name_Hall 'P 1'
loop_
    _symmetry_equiv_pos_as_xyz
    x,y,z
loop_
    _atom_site_label
    _atom_site_type_symbol
    _atom_site_fract_x
    _atom_site_fract_y
    _atom_site_fract_z
    _atom_site_occupancy
    Zn0     Zn   0.23775   0.37500   0.73720   1.000
    Zn1     Zn   0.23775   0.87501   0.73720   1.000
    Zn2     Zn   0.73775   0.37500   0.73720   1.000
    Zn3     Zn   0.73775   0.87501   0.73720   1.000
    Zn4     Zn   0.01147   0.12500   0.23725   1.000
    Zn5     Zn   0.01147   0.62501   0.23725   1.000
    Zn6     Zn   0.51147   0.12500   0.23725   1.000
    Zn7     Zn   0.51147   0.62501   0.23725   1.000
    Zn8     Zn   0.26224   0.12500   0.26279   1.000
    Zn9     Zn   0.26224   0.62501   0.26279   1.000
    Zn10    Zn   0.76224   0.12500   0.26279   1.000
    Zn11    Zn   0.76224   0.62501   0.26279   1.000
    Zn12    Zn   0.48853   0.37500   0.76273   1.000
    Zn13    Zn   0.48853   0.87501   0.76273   1.000
    Zn14    Zn   0.98853   0.37500   0.76273   1.000
    Zn15    Zn   0.98853   0.87501   0.76273   1.000
    Zn16    Zn   0.31494   0.12500   0.92159   1.000
    Zn17    Zn   0.31494   0.62501   0.92159   1.000
    Zn18    Zn   0.81494   0.12500   0.92159   1.000
    Zn19    Zn   0.81494   0.62501   0.92159   1.000
    Zn20    Zn   0.43619   0.37500   0.42169   1.000
    Zn21    Zn   0.43619   0.87501   0.42169   1.000
    Zn22    Zn   0.93619   0.37500   0.42169   1.000
    Zn23    Zn   0.93619   0.87501   0.42169   1.000
    Zn24    Zn   0.18506   0.37500   0.07840   1.000
    Zn25    Zn   0.18506   0.87501   0.07840   1.000
    Zn26    Zn   0.68506   0.37500   0.07840   1.000
    Zn27    Zn   0.68506   0.87501   0.07840   1.000
    Zn28    Zn   0.06380   0.12500   0.57830   1.000
    Zn29    Zn   0.06381   0.62501   0.57830   1.000
    Zn30    Zn   0.56380   0.12500   0.57830   1.000
    Zn31    Zn   0.56381   0.62501   0.57830   1.000
    H32     H    0.48418   0.01859   0.87178   1.000
    H33     H    0.48418   0.51859   0.87178   1.000
    H34     H    0.98418   0.01859   0.87178   1.000
    H35     H    0.98418   0.51859   0.87178   1.000
    H36     H    0.21649   0.02149   0.82352   1.000
    H37     H    0.21649   0.52150   0.82352   1.000
    H38     H    0.71649   0.02149   0.82352   1.000
    H39     H    0.71649   0.52150   0.82352   1.000
    H40     H    0.26628   0.48114   0.37208   1.000
    H41     H    0.26628   0.98115   0.37208   1.000
    H42     H    0.76628   0.48114   0.37208   1.000
    H43     H    0.76629   0.98115   0.37208   1.000
    H44     H    0.03395   0.47875   0.32351   1.000
    H45     H    0.03395   0.97875   0.32351   1.000
    H46     H    0.53395   0.47875   0.32351   1.000
    H47     H    0.53396   0.97875   0.32351   1.000
    H48     H    0.01581   0.26859   0.12821   1.000
    H49     H    0.01581   0.76860   0.12821   1.000
    H50     H    0.51581   0.26859   0.12821   1.000
    H51     H    0.51581   0.76860   0.12821   1.000
    H52     H    0.28350   0.27150   0.17647   1.000
    H53     H    0.28350   0.77150   0.17647   1.000
    H54     H    0.78350   0.27150   0.17647   1.000
    H55     H    0.78350   0.77150   0.17647   1.000
    H56     H    0.23371   0.23114   0.62791   1.000
    H57     H    0.23371   0.73114   0.62791   1.000
    H58     H    0.73371   0.23114   0.62791   1.000
    H59     H    0.73371   0.73114   0.62791   1.000
    H60     H    0.46604   0.22874   0.67649   1.000
    H61     H    0.46605   0.72875   0.67649   1.000
    H62     H    0.96605   0.22874   0.67649   1.000
    H63     H    0.96605   0.72875   0.67649   1.000
    H64     H    0.01582   0.48142   0.12821   1.000
    H65     H    0.01582   0.98143   0.12821   1.000
    H66     H    0.51582   0.48142   0.12821   1.000
    H67     H    0.51582   0.98143   0.12821   1.000
    H68     H    0.28351   0.47851   0.17640   1.000
    H69     H    0.28351   0.97852   0.17640   1.000
    H70     H    0.78351   0.47851   0.17640   1.000
    H71     H    0.78351   0.97852   0.17640   1.000
    H72     H    0.23371   0.01886   0.62791   1.000
    H73     H    0.23371   0.51887   0.62791   1.000
    H74     H    0.73371   0.01886   0.62791   1.000
    H75     H    0.73371   0.51887   0.62791   1.000
    H76     H    0.46604   0.02126   0.67648   1.000
    H77     H    0.46604   0.52127   0.67648   1.000
    H78     H    0.96604   0.02126   0.67648   1.000
    H79     H    0.96604   0.52127   0.67648   1.000
    H80     H    0.48418   0.23142   0.87178   1.000
    H81     H    0.48418   0.73142   0.87178   1.000
    H82     H    0.98418   0.23142   0.87178   1.000
    H83     H    0.98418   0.73142   0.87178   1.000
    H84     H    0.21649   0.22851   0.82352   1.000
    H85     H    0.21649   0.72852   0.82352   1.000
    H86     H    0.71649   0.22851   0.82352   1.000
    H87     H    0.71649   0.72852   0.82352   1.000
    H88     H    0.26628   0.26887   0.37208   1.000
    H89     H    0.26628   0.76888   0.37208   1.000
    H90     H    0.76628   0.26887   0.37208   1.000
    H91     H    0.76628   0.76888   0.37208   1.000
    H92     H    0.03395   0.27126   0.32350   1.000
    H93     H    0.03395   0.77127   0.32350   1.000
    H94     H    0.53395   0.27126   0.32350   1.000
    H95     H    0.53395   0.77127   0.32350   1.000
    H96     H    0.27005   0.37501   0.92237   1.000
    H97     H    0.27005   0.87501   0.92237   1.000
    H98     H    0.77005   0.37501   0.92237   1.000
    H99     H    0.77005   0.87501   0.92237   1.000
    H100    H    0.00038   0.37500   0.96230   1.000
    H101    H    0.00038   0.87501   0.96230   1.000
    H102    H    0.50038   0.37500   0.96230   1.000
    H103    H    0.50038   0.87501   0.96230   1.000
    H104    H    0.47984   0.12500   0.42211   1.000
    H105    H    0.47984   0.62501   0.42211   1.000
    H106    H    0.97984   0.12500   0.42211   1.000
    H107    H    0.97985   0.62501   0.42211   1.000
    H108    H    0.24935   0.12500   0.46266   1.000
    H109    H    0.24935   0.62501   0.46266   1.000
    H110    H    0.74935   0.12500   0.46266   1.000
    H111    H    0.74935   0.62501   0.46266   1.000
    H112    H    0.22995   0.12500   0.07762   1.000
    H113    H    0.22995   0.62501   0.07762   1.000
    H114    H    0.72995   0.12500   0.07762   1.000
    H115    H    0.72995   0.62501   0.07762   1.000
    H116    H    0.49962   0.12500   0.03769   1.000
    H117    H    0.49962   0.62501   0.03769   1.000
    H118    H    0.99962   0.12500   0.03769   1.000
    H119    H    0.99962   0.62501   0.03769   1.000
    H120    H    0.02015   0.37500   0.57788   1.000
    H121    H    0.02015   0.87501   0.57788   1.000
    H122    H    0.52015   0.37500   0.57788   1.000
    H123    H    0.52015   0.87501   0.57788   1.000
    H124    H    0.25064   0.37500   0.53733   1.000
    H125    H    0.25064   0.87501   0.53733   1.000
    H126    H    0.75064   0.37500   0.53733   1.000
    H127    H    0.75064   0.87501   0.53733   1.000
    C128    C    0.42020   0.00558   0.85041   1.000
    C129    C    0.42020   0.50559   0.85041   1.000
    C130    C    0.92020   0.00558   0.85041   1.000
    C131    C    0.92020   0.50559   0.85041   1.000
    C132    C    0.28442   0.00706   0.82470   1.000
    C133    C    0.28443   0.50706   0.82470   1.000
    C134    C    0.78443   0.00706   0.82470   1.000
    C135    C    0.78443   0.50706   0.82470   1.000
    C136    C    0.33019   0.49424   0.35061   1.000
    C137    C    0.33019   0.99425   0.35061   1.000
    C138    C    0.83019   0.49424   0.35061   1.000
    C139    C    0.83019   0.99425   0.35061   1.000
    C140    C    0.46596   0.49302   0.32483   1.000
    C141    C    0.46596   0.99303   0.32483   1.000
    C142    C    0.96596   0.49302   0.32483   1.000
    C143    C    0.96596   0.99303   0.32483   1.000
    C144    C    0.07979   0.25559   0.14958   1.000
    C145    C    0.07979   0.75559   0.14958   1.000
    C146    C    0.57979   0.25559   0.14958   1.000
    C147    C    0.57979   0.75559   0.14958   1.000
    C148    C    0.21556   0.25706   0.17522   1.000
    C149    C    0.21556   0.75706   0.17522   1.000
    C150    C    0.71556   0.25706   0.17522   1.000
    C151    C    0.71557   0.75706   0.17522   1.000
    C152    C    0.16981   0.24424   0.64938   1.000
    C153    C    0.16981   0.74425   0.64938   1.000
    C154    C    0.66980   0.24424   0.64938   1.000
    C155    C    0.66981   0.74425   0.64938   1.000
    C156    C    0.03404   0.24302   0.67516   1.000
    C157    C    0.03404   0.74303   0.67516   1.000
    C158    C    0.53404   0.24302   0.67516   1.000
    C159    C    0.53404   0.74303   0.67516   1.000
    C160    C    0.07980   0.49443   0.14958   1.000
    C161    C    0.07980   0.99443   0.14958   1.000
    C162    C    0.57980   0.49443   0.14958   1.000
    C163    C    0.57980   0.99443   0.14958   1.000
    C164    C    0.21557   0.49295   0.17522   1.000
    C165    C    0.21557   0.99296   0.17522   1.000
    C166    C    0.71557   0.49295   0.17522   1.000
    C167    C    0.71557   0.99296   0.17522   1.000
    C168    C    0.16980   0.00576   0.64938   1.000
    C169    C    0.16980   0.50577   0.64938   1.000
    C170    C    0.66980   0.00576   0.64938   1.000
    C171    C    0.66980   0.50577   0.64938   1.000
    C172    C    0.03403   0.00698   0.67516   1.000
    C173    C    0.03403   0.50699   0.67516   1.000
    C174    C    0.53403   0.00698   0.67516   1.000
    C175    C    0.53403   0.50699   0.67516   1.000
    C176    C    0.42020   0.24442   0.85041   1.000
    C177    C    0.42020   0.74443   0.85041   1.000
    C178    C    0.92020   0.24442   0.85041   1.000
    C179    C    0.92020   0.74443   0.85041   1.000
    C180    C    0.28443   0.24295   0.82470   1.000
    C181    C    0.28443   0.74296   0.82470   1.000
    C182    C    0.78443   0.24295   0.82470   1.000
    C183    C    0.78443   0.74296   0.82470   1.000
    C184    C    0.33019   0.25577   0.35061   1.000
    C185    C    0.33019   0.75577   0.35061   1.000
    C186    C    0.83019   0.25577   0.35061   1.000
    C187    C    0.83019   0.75577   0.35061   1.000
    C188    C    0.46596   0.25698   0.32483   1.000
    C189    C    0.46596   0.75699   0.32483   1.000
    C190    C    0.96596   0.25698   0.32483   1.000
    C191    C    0.96596   0.75699   0.32483   1.000
    C192    C    0.20030   0.37501   0.91329   1.000
    C193    C    0.20030   0.87501   0.91329   1.000
    C194    C    0.70030   0.37501   0.91329   1.000
    C195    C    0.70030   0.87501   0.91329   1.000
    C196    C    0.06334   0.37500   0.93435   1.000
    C197    C    0.06334   0.87501   0.93435   1.000
    C198    C    0.56334   0.37500   0.93435   1.000
    C199    C    0.56334   0.87501   0.93435   1.000
    C200    C    0.04963   0.12500   0.41320   1.000
    C201    C    0.04963   0.62501   0.41320   1.000
    C202    C    0.54963   0.12500   0.41320   1.000
    C203    C    0.54963   0.62501   0.41320   1.000
    C204    C    0.18649   0.12500   0.43456   1.000
    C205    C    0.18649   0.62501   0.43456   1.000
    C206    C    0.68649   0.12500   0.43456   1.000
    C207    C    0.68649   0.62501   0.43456   1.000
    C208    C    0.29970   0.12500   0.08670   1.000
    C209    C    0.29970   0.62501   0.08670   1.000
    C210    C    0.79970   0.12500   0.08670   1.000
    C211    C    0.79970   0.62501   0.08670   1.000
    C212    C    0.43665   0.12500   0.06564   1.000
    C213    C    0.43666   0.62501   0.06564   1.000
    C214    C    0.93665   0.12500   0.06564   1.000
    C215    C    0.93666   0.62501   0.06564   1.000
    C216    C    0.45037   0.37501   0.58679   1.000
    C217    C    0.45037   0.87501   0.58679   1.000
    C218    C    0.95037   0.37501   0.58679   1.000
    C219    C    0.95037   0.87501   0.58679   1.000
    C220    C    0.31351   0.37500   0.56543   1.000
    C221    C    0.31351   0.87501   0.56543   1.000
    C222    C    0.81351   0.37500   0.56543   1.000
    C223    C    0.81351   0.87501   0.56543   1.000
    N224    N    0.31667   0.45309   0.79150   1.000
    N225    N    0.31667   0.95310   0.79150   1.000
    N226    N    0.81667   0.45309   0.79150   1.000
    N227    N    0.81667   0.95310   0.79150   1.000
    N228    N    0.34667   0.04178   0.86247   1.000
    N229    N    0.34667   0.54179   0.86247   1.000
    N230    N    0.84667   0.04178   0.86247   1.000
    N231    N    0.84667   0.54179   0.86247   1.000
    N232    N    0.40432   0.45197   0.80817   1.000
    N233    N    0.40432   0.95198   0.80817   1.000
    N234    N    0.90432   0.45197   0.80817   1.000
    N235    N    0.90432   0.95198   0.80817   1.000
    N236    N    0.43349   0.04690   0.29165   1.000
    N237    N    0.43349   0.54691   0.29165   1.000
    N238    N    0.93349   0.04690   0.29165   1.000
    N239    N    0.93349   0.54691   0.29165   1.000
    N240    N    0.40387   0.45820   0.36261   1.000
    N241    N    0.40387   0.95821   0.36261   1.000
    N242    N    0.90387   0.45820   0.36261   1.000
    N243    N    0.90387   0.95821   0.36261   1.000
    N244    N    0.34587   0.04788   0.30833   1.000
    N245    N    0.34587   0.54789   0.30833   1.000
    N246    N    0.84586   0.04788   0.30833   1.000
    N247    N    0.84587   0.54789   0.30833   1.000
    N248    N    0.18332   0.20309   0.20841   1.000
    N249    N    0.18332   0.70309   0.20841   1.000
    N250    N    0.68332   0.20309   0.20841   1.000
    N251    N    0.68332   0.70309   0.20841   1.000
    N252    N    0.15332   0.29179   0.13752   1.000
    N253    N    0.15332   0.79179   0.13752   1.000
    N254    N    0.65332   0.29179   0.13752   1.000
    N255    N    0.65332   0.79179   0.13752   1.000
    N256    N    0.09567   0.20197   0.19181   1.000
    N257    N    0.09567   0.70197   0.19181   1.000
    N258    N    0.59567   0.20197   0.19181   1.000
    N259    N    0.59567   0.70197   0.19181   1.000
    N260    N    0.06651   0.29691   0.70834   1.000
    N261    N    0.06651   0.79691   0.70834   1.000
    N262    N    0.56651   0.29691   0.70834   1.000
    N263    N    0.56651   0.79691   0.70834   1.000
    N264    N    0.09613   0.20820   0.63738   1.000
    N265    N    0.09613   0.70820   0.63738   1.000
    N266    N    0.59613   0.20820   0.63738   1.000
    N267    N    0.59613   0.70820   0.63738   1.000
    N268    N    0.15413   0.29788   0.69166   1.000
    N269    N    0.15413   0.79789   0.69166   1.000
    N270    N    0.65413   0.29788   0.69166   1.000
    N271    N    0.65413   0.79789   0.69166   1.000
    N272    N    0.18332   0.04692   0.20841   1.000
    N273    N    0.18333   0.54692   0.20841   1.000
    N274    N    0.68333   0.04692   0.20841   1.000
    N275    N    0.68333   0.54692   0.20841   1.000
    N276    N    0.15332   0.45822   0.13752   1.000
    N277    N    0.15332   0.95823   0.13752   1.000
    N278    N    0.65332   0.45822   0.13752   1.000
    N279    N    0.65332   0.95823   0.13752   1.000
    N280    N    0.09568   0.04804   0.19182   1.000
    N281    N    0.09568   0.54804   0.19182   1.000
    N282    N    0.59568   0.04804   0.19182   1.000
    N283    N    0.59568   0.54804   0.19182   1.000
    N284    N    0.06651   0.45310   0.70834   1.000
    N285    N    0.06651   0.95311   0.70834   1.000
    N286    N    0.56651   0.45310   0.70834   1.000
    N287    N    0.56651   0.95311   0.70834   1.000
    N288    N    0.09612   0.04181   0.63738   1.000
    N289    N    0.09613   0.54181   0.63738   1.000
    N290    N    0.59613   0.04181   0.63738   1.000
    N291    N    0.59613   0.54181   0.63738   1.000
    N292    N    0.15413   0.45213   0.69166   1.000
    N293    N    0.15413   0.95213   0.69166   1.000
    N294    N    0.65413   0.45213   0.69166   1.000
    N295    N    0.65413   0.95213   0.69166   1.000
    N296    N    0.31667   0.29692   0.79157   1.000
    N297    N    0.31667   0.79692   0.79157   1.000
    N298    N    0.81667   0.29692   0.79157   1.000
    N299    N    0.81667   0.79692   0.79157   1.000
    N300    N    0.34668   0.20822   0.86247   1.000
    N301    N    0.34668   0.70823   0.86247   1.000
    N302    N    0.84668   0.20822   0.86247   1.000
    N303    N    0.84668   0.70823   0.86247   1.000
    N304    N    0.40432   0.29804   0.80810   1.000
    N305    N    0.40432   0.79805   0.80817   1.000
    N306    N    0.90432   0.29804   0.80817   1.000
    N307    N    0.90432   0.79805   0.80817   1.000
    N308    N    0.43348   0.20310   0.29165   1.000
    N309    N    0.43348   0.70311   0.29165   1.000
    N310    N    0.93348   0.20310   0.29165   1.000
    N311    N    0.93348   0.70311   0.29165   1.000
    N312    N    0.40387   0.29181   0.36261   1.000
    N313    N    0.40387   0.79182   0.36261   1.000
    N314    N    0.90387   0.29181   0.36261   1.000
    N315    N    0.90387   0.79182   0.36261   1.000
    N316    N    0.34586   0.20212   0.30833   1.000
    N317    N    0.34586   0.70213   0.30833   1.000
    N318    N    0.84586   0.20212   0.30833   1.000
    N319    N    0.84586   0.70213   0.30833   1.000
    N320    N    0.16204   0.37501   0.84600   1.000
    N321    N    0.16204   0.87501   0.84600   1.000
    N322    N    0.66205   0.37501   0.84600   1.000
    N323    N    0.66205   0.87501   0.84600   1.000
    N324    N    0.07365   0.37500   0.85945   1.000
    N325    N    0.07365   0.87501   0.85945   1.000
    N326    N    0.57365   0.37501   0.85945   1.000
    N327    N    0.57365   0.87501   0.85945   1.000
    N328    N    0.14147   0.37501   0.97069   1.000
    N329    N    0.14147   0.87501   0.97069   1.000
    N330    N    0.64147   0.37501   0.97069   1.000
    N331    N    0.64147   0.87501   0.97069   1.000
    N332    N    0.08809   0.12500   0.34599   1.000
    N333    N    0.08809   0.62501   0.34599   1.000
    N334    N    0.58809   0.12500   0.34599   1.000
    N335    N    0.58809   0.62501   0.34599   1.000
    N336    N    0.17646   0.12500   0.35962   1.000
    N337    N    0.17646   0.62501   0.35962   1.000
    N338    N    0.67646   0.12500   0.35962   1.000
    N339    N    0.67646   0.62501   0.35962   1.000
    N340    N    0.10822   0.12500   0.47075   1.000
    N341    N    0.10822   0.62501   0.47075   1.000
    N342    N    0.60822   0.12500   0.47075   1.000
    N343    N    0.60822   0.62501   0.47075   1.000
    N344    N    0.33795   0.12500   0.15399   1.000
    N345    N    0.33795   0.62501   0.15399   1.000
    N346    N    0.83795   0.12500   0.15399   1.000
    N347    N    0.83795   0.62501   0.15399   1.000
    N348    N    0.42634   0.12500   0.14054   1.000
    N349    N    0.42634   0.62501   0.14054   1.000
    N350    N    0.92634   0.12500   0.14054   1.000
    N351    N    0.92634   0.62501   0.14054   1.000
    N352    N    0.35852   0.12500   0.02930   1.000
    N353    N    0.35852   0.62501   0.02930   1.000
    N354    N    0.85852   0.12500   0.02930   1.000
    N355    N    0.85852   0.62501   0.02930   1.000
    N356    N    0.41191   0.37500   0.65400   1.000
    N357    N    0.41191   0.87501   0.65400   1.000
    N358    N    0.91191   0.37500   0.65400   1.000
    N359    N    0.91191   0.87501   0.65400   1.000
    N360    N    0.32353   0.37500   0.64037   1.000
    N361    N    0.32354   0.87501   0.64037   1.000
    N362    N    0.82353   0.37500   0.64037   1.000
    N363    N    0.82354   0.87501   0.64037   1.000
    N364    N    0.39177   0.37500   0.52924   1.000
    N365    N    0.39177   0.87501   0.52924   1.000
    N366    N    0.89178   0.37500   0.52924   1.000
    N367    N    0.89178   0.87501   0.52924   1.000
    Cl368   Cl   0.16643   0.12501   0.92698   1.000
    Cl369   Cl   0.16643   0.62501   0.92698   1.000
    Cl370   Cl   0.66643   0.12501   0.92698   1.000
    Cl371   Cl   0.66643   0.62501   0.92698   1.000
    Cl372   Cl   0.08449   0.37500   0.42706   1.000
    Cl373   Cl   0.08450   0.87501   0.42706   1.000
    Cl374   Cl   0.58449   0.37500   0.42706   1.000
    Cl375   Cl   0.58450   0.87501   0.42706   1.000
    Cl376   Cl   0.33356   0.37500   0.07301   1.000
    Cl377   Cl   0.33357   0.87501   0.07301   1.000
    Cl378   Cl   0.83357   0.37500   0.07301   1.000
    Cl379   Cl   0.83357   0.87501   0.07301   1.000
    Cl380   Cl   0.41550   0.12501   0.57292   1.000
    Cl381   Cl   0.41550   0.62501   0.57292   1.000
    Cl382   Cl   0.91550   0.12501   0.57292   1.000
    Cl383   Cl   0.91550   0.62501   0.57292   1.000
loop_
    _geom_bond_atom_site_label_1
    _geom_bond_atom_site_label_2
    _geom_bond_distance
    _geom_bond_site_symmetry_2
    _ccdc_geom_bond_type
    N355   C215      1.36236      .   S
    N355   C211      1.35975      .   S
    N355   Zn19      2.02057  1_554   S
    N354   C214      1.36236      .   S
    N354   C210      1.35975      .   S
    N354   Zn18      2.02057  1_554   S
    N353   C213      1.36236      .   S
    N353   C209      1.35975      .   S
    N353   Zn17      2.02058  1_554   S
    N352   C212      1.36236      .   S
    N352   C208      1.35975      .   S
    N352   Zn16      2.02058  1_554   S
    H117   C213      1.08671      .   S
    H116   C212      1.08671      .   S
    H118   C214      1.08672      .   S
    H119   C215      1.08672      .   S
    C213   N349      1.33491      .   S
    C214   N350      1.33491      .   S
    C215   N351      1.33491      .   S
    C212   N348      1.33491      .   S
    Cl379  Zn27      2.28455      .   S
    Cl378  Zn26      2.28457      .   S
    Cl377  Zn25      2.28457      .   S
    Cl376  Zn24      2.28455      .   S
    H112   C208      1.08410      .   S
    H113   C209      1.08410      .   S
    H114   C210      1.08408      .   S
    H115   C211      1.08410      .   S
    Zn27   N255      2.03257      .   S
    Zn27   N279      2.03257      .   S
    Zn27   N331      2.02058  1_554   S
    Zn26   N278      2.03257      .   S
    Zn26   N254      2.03258      .   S
    Zn26   N330      2.02057  1_554   S
    Zn25   N253      2.03257      .   S
    Zn25   N277      2.03257      .   S
    Zn25   N329      2.02057  1_554   S
    Zn24   N252      2.03259      .   S
    Zn24   N276      2.03257      .   S
    Zn24   N328      2.02058  1_554   S
    C211   N347      1.32818      .   S
    C210   N346      1.32818      .   S
    C209   N345      1.32818      .   S
    C208   N344      1.32818      .   S
    H64    C160      1.08562      .   S
    H65    C161      1.08562      .   S
    H66    C162      1.08562      .   S
    H67    C163      1.08562      .   S
    H51    C147      1.08562      .   S
    H50    C146      1.08562      .   S
    H49    C145      1.08562      .   S
    H48    C144      1.08560      .   S
    N278   C162      1.36094      .   S
    N278   C166      1.35951      .   S
    N255   C147      1.36095      .   S
    N255   C151      1.35951      .   S
    N254   C146      1.36094      .   S
    N254   C150      1.35950      .   S
    N253   C145      1.36095      .   S
    N253   C149      1.35951      .   S
    N252   C144      1.36094      .   S
    N252   C148      1.35950      .   S
    N277   C161      1.36095      .   S
    N277   C165      1.35951      .   S
    N276   C160      1.36094      .   S
    N276   C164      1.35951      .   S
    N279   C163      1.36095      .   S
    N279   C167      1.35951      .   S
    N350   N346      1.37924      .   S
    N350   Zn4       2.15451  1_655   S
    N349   N345      1.37924      .   S
    N349   Zn7       2.15451      .   S
    N351   N347      1.37924      .   S
    N351   Zn5       2.15451  1_655   S
    N348   N344      1.37924      .   S
    N348   Zn6       2.15451      .   S
    C160   N281      1.33429      .   S
    C161   N280      1.33410  1_565   S
    C162   N283      1.33431      .   S
    C163   N282      1.33410  1_565   S
    C144   N256      1.33422      .   S
    C145   N257      1.33421      .   S
    C146   N258      1.33422      .   S
    C147   N259      1.33421      .   S
    N344   Zn8       2.24951      .   S
    N347   Zn11      2.24950      .   S
    N346   Zn10      2.24950      .   S
    N345   Zn9       2.24951      .   S
    C164   H68       1.08403      .   S
    C164   N273      1.32954      .   S
    C165   H69       1.08402      .   S
    C165   N272      1.32935  1_565   S
    C148   H52       1.08405      .   S
    C148   N248      1.32954      .   S
    C166   H70       1.08403      .   S
    C166   N275      1.32954      .   S
    C167   H71       1.08402      .   S
    C167   N274      1.32935  1_565   S
    C149   H53       1.08405      .   S
    C149   N249      1.32954      .   S
    C150   H54       1.08404      .   S
    C150   N250      1.32954      .   S
    C151   H55       1.08404      .   S
    C151   N251      1.32954      .   S
    N256   N248      1.37909      .   S
    N256   Zn4       2.17149      .   S
    N259   N251      1.37909      .   S
    N259   Zn7       2.17152      .   S
    N258   N250      1.37909      .   S
    N258   Zn6       2.17150      .   S
    N257   N249      1.37909      .   S
    N257   Zn5       2.17151      .   S
    N283   N275      1.37907      .   S
    N283   Zn7       2.17145      .   S
    N280   N272      1.37905      .   S
    N280   Zn4       2.17145      .   S
    N282   N274      1.37907      .   S
    N282   Zn6       2.17145      .   S
    N281   N273      1.37907      .   S
    N281   Zn5       2.17144      .   S
    N273   Zn9       2.20511      .   S
    N274   Zn10      2.20511      .   S
    N272   Zn8       2.20511      .   S
    N251   Zn11      2.20510      .   S
    N250   Zn10      2.20510      .   S
    N249   Zn9       2.20510      .   S
    N248   Zn8       2.20510      .   S
    N275   Zn11      2.20511      .   S
    Zn4    N238      2.19730  1_455   S
    Zn4    N310      2.19729  1_455   S
    Zn4    N332      2.25637      .   S
    Zn5    N239      2.19730  1_455   S
    Zn5    N311      2.19729  1_455   S
    Zn5    N333      2.25636      .   S
    Zn6    N236      2.19731      .   S
    Zn6    N308      2.19729      .   S
    Zn6    N334      2.25637      .   S
    Zn7    N237      2.19731      .   S
    Zn7    N309      2.19729      .   S
    Zn7    N335      2.25637      .   S
    Zn8    N316      2.16928      .   S
    Zn8    N244      2.16928      .   S
    Zn8    N336      2.16190      .   S
    Zn9    N317      2.16929      .   S
    Zn9    N245      2.16928      .   S
    Zn9    N337      2.16190      .   S
    Zn10   N246      2.16927      .   S
    Zn10   N318      2.16927      .   S
    Zn10   N338      2.16191      .   S
    Zn11   N247      2.16927      .   S
    Zn11   N319      2.16929      .   S
    Zn11   N339      2.16191      .   S
    N236   N244      1.37878      .   S
    N236   C141      1.32929  1_545   S
    N237   N245      1.37878      .   S
    N237   C140      1.32949      .   S
    N238   N246      1.37880      .   S
    N238   C143      1.32929  1_545   S
    N239   N247      1.37880      .   S
    N239   C142      1.32948      .   S
    N308   N316      1.37878      .   S
    N308   C188      1.32948      .   S
    N309   N317      1.37878      .   S
    N309   C189      1.32948      .   S
    N310   N318      1.37878      .   S
    N310   C190      1.32948      .   S
    N311   N319      1.37878      .   S
    N311   C191      1.32948      .   S
    N246   C139      1.33426  1_545   S
    N247   C138      1.33446      .   S
    N316   C184      1.33447      .   S
    N244   C137      1.33426  1_545   S
    N319   C187      1.33446      .   S
    N318   C186      1.33447      .   S
    N317   C185      1.33446      .   S
    N245   C136      1.33446      .   S
    H95    C189      1.08403      .   S
    H92    C190      1.08400  1_455   S
    H93    C191      1.08400  1_455   S
    H94    C188      1.08403      .   S
    H44    C142      1.08400  1_455   S
    H45    C143      1.08400  1_455   S
    H46    C140      1.08402      .   S
    H47    C141      1.08403      .   S
    C140   N240      1.35929      .   S
    C141   N241      1.35927      .   S
    C142   N242      1.35927      .   S
    C143   N243      1.35926      .   S
    C189   N313      1.35928      .   S
    C190   N314      1.35928      .   S
    C191   N315      1.35929      .   S
    C188   N312      1.35927      .   S
    N335   N339      1.37957      .   S
    N335   C203      1.32809      .   S
    N334   N338      1.37957      .   S
    N334   C202      1.32809      .   S
    N333   N337      1.37958      .   S
    N333   C201      1.32808      .   S
    N332   N336      1.37957      .   S
    N332   C200      1.32809      .   S
    C184   N312      1.36109      .   S
    C184   H88       1.08554      .   S
    C136   N240      1.36109      .   S
    C136   H40       1.08557      .   S
    C137   N241      1.36109      .   S
    C137   H41       1.08557      .   S
    C138   N242      1.36109      .   S
    C138   H42       1.08557      .   S
    C139   N243      1.36109      .   S
    C139   H43       1.08555      .   S
    C185   N313      1.36110      .   S
    C185   H89       1.08555      .   S
    C186   N314      1.36109      .   S
    C186   H90       1.08555      .   S
    C187   N315      1.36110      .   S
    C187   H91       1.08555      .   S
    N336   C204      1.33517      .   S
    N337   C205      1.33517      .   S
    N338   C206      1.33517      .   S
    N339   C207      1.33517      .   S
    N313   Zn21      2.03413      .   S
    N312   Zn20      2.03415      .   S
    N314   Zn22      2.03415      .   S
    N315   Zn23      2.03413      .   S
    N242   Zn22      2.03413      .   S
    N240   Zn20      2.03414      .   S
    N241   Zn21      2.03414      .   S
    N243   Zn23      2.03415      .   S
    C201   H107      1.08409  1_455   S
    C201   N341      1.35964      .   S
    C203   H105      1.08410      .   S
    C203   N343      1.35965      .   S
    C202   H104      1.08410      .   S
    C202   N342      1.35965      .   S
    C200   H106      1.08409  1_455   S
    C200   N340      1.35964      .   S
    Zn23   Cl373     2.28143  1_655   S
    Zn23   N367      2.02189      .   S
    Zn20   Cl374     2.28145      .   S
    Zn20   N364      2.02189      .   S
    Zn21   Cl375     2.28145      .   S
    Zn21   N365      2.02189      .   S
    Zn22   Cl372     2.28143  1_655   S
    Zn22   N366      2.02189      .   S
    C205   H109      1.08677      .   S
    C205   N341      1.36271      .   S
    C206   H110      1.08678      .   S
    C206   N342      1.36270      .   S
    C207   H111      1.08678      .   S
    C207   N343      1.36270      .   S
    C204   H108      1.08677      .   S
    C204   N340      1.36271      .   S
    N343   Zn31      2.02189      .   S
    N342   Zn30      2.02189      .   S
    N341   Zn29      2.02189      .   S
    N340   Zn28      2.02189      .   S
    N364   C220      1.36270      .   S
    N364   C216      1.35965      .   S
    N365   C221      1.36270      .   S
    N365   C217      1.35964      .   S
    N366   C222      1.36271      .   S
    N366   C218      1.35964      .   S
    N367   C223      1.36271      .   S
    N367   C219      1.35964      .   S
    H125   C221      1.08678      .   S
    H124   C220      1.08678      .   S
    H126   C222      1.08677      .   S
    H127   C223      1.08677      .   S
    C223   N363      1.33517      .   S
    C220   N360      1.33517      .   S
    C221   N361      1.33517      .   S
    C222   N362      1.33517      .   S
    Cl383  Zn29      2.28144  1_655   S
    Cl380  Zn30      2.28146      .   S
    Cl381  Zn31      2.28146      .   S
    Cl382  Zn28      2.28144  1_655   S
    H123   C217      1.08412      .   S
    H122   C216      1.08410      .   S
    H121   C219      1.08409  1_455   S
    H120   C218      1.08409  1_455   S
    Zn29   N265      2.03415      .   S
    Zn29   N289      2.03413      .   S
    Zn30   N266      2.03415      .   S
    Zn30   N290      2.03414      .   S
    Zn31   N267      2.03415      .   S
    Zn31   N291      2.03414      .   S
    Zn28   N264      2.03415      .   S
    Zn28   N288      2.03413      .   S
    C218   N358      1.32808      .   S
    C219   N359      1.32808      .   S
    C217   N357      1.32808      .   S
    C216   N356      1.32809      .   S
    H75    C171      1.08557      .   S
    H74    C170      1.08557      .   S
    H73    C169      1.08555      .   S
    H72    C168      1.08555      .   S
    H56    C152      1.08554      .   S
    H59    C155      1.08554      .   S
    H58    C154      1.08554      .   S
    H57    C153      1.08554      .   S
    N264   C152      1.36109      .   S
    N264   C156      1.35928      .   S
    N267   C155      1.36109      .   S
    N267   C159      1.35927      .   S
    N266   C154      1.36109      .   S
    N266   C158      1.35927      .   S
    N265   C153      1.36109      .   S
    N265   C157      1.35928      .   S
    N289   C169      1.36109      .   S
    N289   C173      1.35927      .   S
    N290   C170      1.36108      .   S
    N290   C174      1.35927      .   S
    N291   C171      1.36108      .   S
    N291   C175      1.35929      .   S
    N288   C168      1.36109      .   S
    N288   C172      1.35927      .   S
    N363   N359      1.37958      .   S
    N363   Zn3       2.16190      .   S
    N361   N357      1.37957      .   S
    N361   Zn1       2.16191      .   S
    N362   N358      1.37958      .   S
    N362   Zn2       2.16190      .   S
    N360   N356      1.37957      .   S
    N360   Zn0       2.16191      .   S
    C155   N271      1.33447      .   S
    C154   N270      1.33447      .   S
    C153   N269      1.33447      .   S
    C152   N268      1.33447      .   S
    C171   N294      1.33446      .   S
    C168   N293      1.33426  1_545   S
    C169   N292      1.33446      .   S
    C170   N295      1.33426  1_545   S
    N357   Zn13      2.25622      .   S
    N358   Zn14      2.25622      .   S
    N359   Zn15      2.25621      .   S
    N356   Zn12      2.25622      .   S
    C157   H63       1.08400  1_455   S
    C157   N261      1.32948      .   S
    C174   H76       1.08403      .   S
    C174   N287      1.32929  1_545   S
    C173   H79       1.08400  1_455   S
    C173   N284      1.32948      .   S
    C172   H78       1.08400  1_455   S
    C172   N285      1.32929  1_545   S
    C159   H61       1.08403      .   S
    C159   N263      1.32948      .   S
    C158   H60       1.08403      .   S
    C158   N262      1.32948      .   S
    C156   H62       1.08400  1_455   S
    C156   N260      1.32948      .   S
    C175   H77       1.08402      .   S
    C175   N286      1.32949      .   S
    N269   N261      1.37878      .   S
    N269   Zn1       2.16929      .   S
    N292   N284      1.37879      .   S
    N292   Zn0       2.16928      .   S
    N293   N285      1.37879      .   S
    N293   Zn1       2.16927      .   S
    N271   N263      1.37877      .   S
    N271   Zn3       2.16929      .   S
    N270   N262      1.37878      .   S
    N270   Zn2       2.16927      .   S
    N268   N260      1.37878      .   S
    N268   Zn0       2.16927      .   S
    N294   N286      1.37878      .   S
    N294   Zn2       2.16929      .   S
    N295   N287      1.37878      .   S
    N295   Zn3       2.16928      .   S
    N284   Zn14      2.19722  1_455   S
    N261   Zn15      2.19723  1_455   S
    N287   Zn13      2.19722      .   S
    N286   Zn12      2.19723      .   S
    N285   Zn15      2.19721  1_455   S
    N260   Zn14      2.19721  1_455   S
    N263   Zn13      2.19724      .   S
    N262   Zn12      2.19722      .   S
    Zn1    N225      2.20449      .   S
    Zn1    N297      2.20503      .   S
    Zn1    N321      2.24950      .   S
    Zn0    N224      2.20449      .   S
    Zn0    N296      2.20502      .   S
    Zn0    N320      2.24950      .   S
    Zn2    N226      2.20449      .   S
    Zn2    N298      2.20502      .   S
    Zn2    N322      2.24950      .   S
    Zn3    N227      2.20449      .   S
    Zn3    N299      2.20503      .   S
    Zn3    N323      2.24951      .   S
    Zn12   N304      2.17104      .   S
    Zn12   N232      2.17151      .   S
    Zn12   N326      2.15465      .   S
    Zn13   N305      2.17152      .   S
    Zn13   N233      2.17150      .   S
    Zn13   N327      2.15465      .   S
    Zn14   N234      2.17151      .   S
    Zn14   N306      2.17150      .   S
    Zn14   N324      2.15464  1_655   S
    Zn15   N307      2.17151      .   S
    Zn15   N235      2.17149      .   S
    Zn15   N325      2.15465  1_655   S
    N225   N233      1.37937      .   S
    N225   C132      1.32942  1_565   S
    N224   N232      1.37937      .   S
    N224   C133      1.32962      .   S
    N226   N234      1.37937      .   S
    N226   C135      1.32962      .   S
    N227   N235      1.37937      .   S
    N227   C134      1.32942  1_565   S
    N296   N304      1.37883      .   S
    N296   C180      1.32907      .   S
    N297   N305      1.37909      .   S
    N297   C181      1.32907      .   S
    N298   N306      1.37909      .   S
    N298   C182      1.32907      .   S
    N299   N307      1.37909      .   S
    N299   C183      1.32907      .   S
    N304   C176      1.33502      .   S
    N234   C131      1.33431      .   S
    N307   C179      1.33431      .   S
    N306   C178      1.33432      .   S
    N305   C177      1.33431      .   S
    N235   C130      1.33411  1_565   S
    N233   C128      1.33411  1_565   S
    N232   C129      1.33431      .   S
    H84    C180      1.08401      .   S
    H87    C183      1.08401      .   S
    H86    C182      1.08401      .   S
    H85    C181      1.08401      .   S
    H39    C135      1.08403      .   S
    H38    C134      1.08402      .   S
    H37    C133      1.08403      .   S
    H36    C132      1.08402      .   S
    C181   N301      1.36011      .   S
    C180   N300      1.36011      .   S
    C135   N231      1.36011      .   S
    C134   N230      1.36011      .   S
    C133   N229      1.36011      .   S
    C132   N228      1.36011      .   S
    C182   N302      1.36011      .   S
    C183   N303      1.36011      .   S
    N322   N326      1.37926      .   S
    N322   C194      1.32817      .   S
    N323   N327      1.37924      .   S
    N323   C195      1.32818      .   S
    N321   N325      1.37924      .   S
    N321   C193      1.32818      .   S
    N320   N324      1.37924      .   S
    N320   C192      1.32818      .   S
    C129   N229      1.36094      .   S
    C129   H33       1.08562      .   S
    C130   N230      1.36094      .   S
    C130   H34       1.08562      .   S
    C131   N231      1.36094      .   S
    C131   H35       1.08562      .   S
    C128   N228      1.36094      .   S
    C128   H32       1.08562      .   S
    C176   N300      1.36095      .   S
    C176   H80       1.08560      .   S
    C177   N301      1.36096      .   S
    C177   H81       1.08561      .   S
    C179   N303      1.36095      .   S
    C179   H83       1.08561      .   S
    C178   N302      1.36094      .   S
    C178   H82       1.08562      .   S
    N327   C199      1.33491      .   S
    N326   C198      1.33491      .   S
    N325   C197      1.33491      .   S
    N324   C196      1.33491      .   S
    N302   Zn18      2.03258      .   S
    N301   Zn17      2.03258      .   S
    N300   Zn16      2.03258      .   S
    N231   Zn19      2.03257      .   S
    N230   Zn18      2.03257      .   S
    N229   Zn17      2.03257      .   S
    N228   Zn16      2.03257      .   S
    N303   Zn19      2.03258      .   S
    C194   H98       1.08410      .   S
    C194   N330      1.35974      .   S
    C193   H97       1.08410      .   S
    C193   N329      1.35975      .   S
    C192   H96       1.08410      .   S
    C192   N328      1.35975      .   S
    C195   H99       1.08410      .   S
    C195   N331      1.35975      .   S
    Zn19   Cl371     2.28457      .   S
    Zn18   Cl370     2.28457      .   S
    Zn17   Cl369     2.28455      .   S
    Zn16   Cl368     2.28455      .   S
    C197   H101      1.08672      .   S
    C197   N329      1.36236      .   S
    C199   H103      1.08671      .   S
    C199   N331      1.36236      .   S
    C198   H102      1.08671      .   S
    C198   N330      1.36238      .   S
    C196   H100      1.08672      .   S
    C196   N328      1.36236      .   S
