# CIF file generated by openbabel 2.4.90, see http://openbabel.sf.net
data_I
_chemical_name_common ''
_cell_length_a 23.02
_cell_length_b 14.98
_cell_length_c 14.982
_cell_angle_alpha 90.008
_cell_angle_beta 89.98
_cell_angle_gamma 90.016
_space_group_name_H-M_alt 'P 1'
_space_group_name_Hall 'P 1'
loop_
    _symmetry_equiv_pos_as_xyz
    x,y,z
loop_
    _atom_site_label
    _atom_site_type_symbol
    _atom_site_fract_x
    _atom_site_fract_y
    _atom_site_fract_z
    _atom_site_occupancy
    N0      N    0.36076   0.26590   0.17200   1.000
    N1      N    0.48573   0.67206   0.23410   1.000
    N2      N    0.98573   0.67206   0.23405   1.000
    N3      N    0.01429   0.23413   0.67203   1.000
    N4      N    0.51429   0.23410   0.67202   1.000
    N5      N    0.23574   0.32801   0.76585   1.000
    N6      N    0.73575   0.32801   0.76585   1.000
    N7      N    0.11072   0.73415   0.82792   1.000
    N8      N    0.86077   0.26590   0.17199   1.000
    N9      N    0.61072   0.73416   0.82790   1.000
    N10     N    0.26426   0.76590   0.32798   1.000
    N11     N    0.76426   0.76590   0.32797   1.000
    N12     N    0.13925   0.17202   0.26587   1.000
    N13     N    0.63926   0.17202   0.26587   1.000
    N14     N    0.88929   0.82799   0.73411   1.000
    N15     N    0.38928   0.82799   0.73411   1.000
    Zr16    Zr   0.75001   0.38715   0.38712   1.000
    O17     O    0.78893   0.35869   0.33029   1.000
    O18     O    0.77676   0.35666   0.31567   1.000
    O19     O    0.74791   0.37194   0.49964   1.000
    O20     O    0.71109   0.33032   0.35866   1.000
    O21     O    0.75211   0.49968   0.37191   1.000
    O22     O    0.72326   0.31569   0.35663   1.000
    Zr23    Zr   0.37501   0.88716   0.11286   1.000
    O24     O    0.33609   0.85870   0.16969   1.000
    O25     O    0.34826   0.85668   0.18431   1.000
    O26     O    0.37292   0.99969   0.12807   1.000
    O27     O    0.37711   0.87195   0.00033   1.000
    O28     O    0.40175   0.81572   0.14335   1.000
    O29     O    0.41392   0.83034   0.14132   1.000
    Zr30    Zr   1.00000   0.61289   0.61284   1.000
    O31     O    0.02674   0.64338   0.68425   1.000
    O32     O    0.03891   0.64135   0.66965   1.000
    O33     O    0.00210   0.50035   0.62806   1.000
    O34     O    0.99790   0.62810   0.50030   1.000
    O35     O    0.97326   0.68433   0.64333   1.000
    O36     O    0.96109   0.66971   0.64130   1.000
    Zr37    Zr   0.25000   0.38715   0.38712   1.000
    O38     O    0.22326   0.31569   0.35663   1.000
    O39     O    0.21108   0.33032   0.35866   1.000
    O40     O    0.27675   0.35666   0.31567   1.000
    O41     O    0.25210   0.49968   0.37191   1.000
    O42     O    0.24791   0.37194   0.49965   1.000
    O43     O    0.28893   0.35869   0.33029   1.000
    Zr44    Zr   0.87502   0.88716   0.11286   1.000
    O45     O    0.87293   0.99969   0.12807   1.000
    O46     O    0.90176   0.81572   0.14332   1.000
    O47     O    0.91393   0.83034   0.14130   1.000
    O48     O    0.87712   0.87195   0.00033   1.000
    O49     O    0.83610   0.85870   0.16969   1.000
    O50     O    0.84827   0.85668   0.18431   1.000
    Zr51    Zr   0.50001   0.61288   0.61284   1.000
    O52     O    0.53892   0.64135   0.66965   1.000
    O53     O    0.52674   0.64338   0.68427   1.000
    O54     O    0.47327   0.68433   0.64333   1.000
    O55     O    0.50211   0.50034   0.62806   1.000
    O56     O    0.46109   0.66970   0.64131   1.000
    O57     O    0.49791   0.62810   0.50031   1.000
    Zr58    Zr   0.62500   0.11288   0.88712   1.000
    O59     O    0.62290   0.00036   0.87189   1.000
    O60     O    0.65175   0.18433   0.85663   1.000
    O61     O    0.66392   0.16971   0.85865   1.000
    O62     O    0.59826   0.14336   0.81567   1.000
    O63     O    0.58609   0.14133   0.83030   1.000
    O64     O    0.62710   0.12809   0.99965   1.000
    Zr65    Zr   0.12499   0.11287   0.88712   1.000
    O66     O    0.12709   0.12808   0.99965   1.000
    O67     O    0.12289   0.00035   0.87189   1.000
    O68     O    0.16391   0.16970   0.85865   1.000
    O69     O    0.15174   0.18433   0.85663   1.000
    O70     O    0.08608   0.14133   0.83030   1.000
    O71     O    0.09826   0.14336   0.81568   1.000
loop_
    _geom_bond_atom_site_label_1
    _geom_bond_atom_site_label_2
    _geom_bond_distance
    _geom_bond_site_symmetry_2
    _ccdc_geom_bond_type
    Zr16   O17       1.30732      .   S
    N8     O17       3.20759      .   S
    Zr16   O18       1.31654      .   S
    N8     O18       3.19678      .   S
    Zr16   O19       1.70184      .   S
    N6     O19       4.05187      .   S
    Zr16   O20       1.30728      .   S
    N13    O20       3.20755      .   S
    Zr16   O21       1.70177      .   S
    N11    O21       4.05167      .   S
    Zr16   O22       1.31649      .   S
    N13    O22       3.19675      .   S
    Zr23   O24       1.30722      .   S
    N10    O24       3.20742      .   S
    Zr23   O25       1.31646      .   S
    N10    O25       3.19657      .   S
    Zr23   O26       1.70161      .   S
    N0     O26       4.05146  1_545   S
    Zr23   O27       1.70192      .   S
    N15    O27       4.05204  1_556   S
    Zr23   O28       1.31671      .   S
    N1     O28       3.19724      .   S
    Zr23   O29       1.30749      .   S
    N1     O29       3.20805      .   S
    Zr30   O31       1.31623  1_655   S
    N7     O31       3.19679      .   S
    Zr30   O32       1.30726  1_655   S
    N7     O32       3.20742      .   S
    Zr30   O33       1.70188  1_655   S
    N3     O33       4.05199      .   S
    Zr30   O34       1.70219      .   S
    N2     O34       4.05279      .   S
    Zr30   O35       1.31644      .   S
    N14    O35       3.19643      .   S
    Zr30   O36       1.30714      .   S
    N14    O36       3.20734      .   S
    Zr37   O38       1.31649      .   S
    N12    O38       3.19676      .   S
    Zr37   O39       1.30728      .   S
    N12    O39       3.20756      .   S
    Zr37   O40       1.31651      .   S
    N0     O40       3.19674      .   S
    Zr37   O41       1.70175      .   S
    N10    O41       4.05166      .   S
    Zr37   O42       1.70188      .   S
    N5     O42       4.05191      .   S
    Zr37   O43       1.30730      .   S
    N0     O43       3.20754      .   S
    Zr44   O45       1.70161      .   S
    N8     O45       4.05144  1_545   S
    Zr44   O46       1.31658      .   S
    N2     O46       3.19699      .   S
    Zr44   O47       1.30740      .   S
    N2     O47       3.20775      .   S
    Zr44   O48       1.70192      .   S
    N14    O48       4.05204  1_556   S
    Zr44   O49       1.30721      .   S
    N11    O49       3.20739      .   S
    Zr44   O50       1.31645      .   S
    N11    O50       3.19656      .   S
    Zr51   O52       1.30724      .   S
    N9     O52       3.20733      .   S
    Zr51   O53       1.31645      .   S
    N9     O53       3.19652      .   S
    Zr51   O54       1.31650      .   S
    N15    O54       3.19662      .   S
    Zr51   O55       1.70195      .   S
    N4     O55       4.05215      .   S
    Zr51   O56       1.30727      .   S
    N15    O56       3.20746      .   S
    Zr51   O57       1.70201      .   S
    N1     O57       4.05225      .   S
    Zr58   O59       1.70155      .   S
    N9     O59       4.05137  1_565   S
    Zr58   O60       1.31642      .   S
    N6     O60       3.19656      .   S
    Zr58   O61       1.30719      .   S
    N6     O61       3.20740      .   S
    Zr58   O62       1.31677      .   S
    N4     O62       3.19721      .   S
    Zr58   O63       1.30751      .   S
    N4     O63       3.20807      .   S
    Zr58   O64       1.70198      .   S
    N13    O64       4.05209  1_554   S
    Zr65   O66       1.70198      .   S
    N12    O66       4.05210  1_554   S
    Zr65   O67       1.70157      .   S
    N7     O67       4.05139  1_565   S
    Zr65   O68       1.30719      .   S
    N5     O68       3.20741      .   S
    Zr65   O69       1.31646      .   S
    N5     O69       3.19653      .   S
    Zr65   O70       1.30749      .   S
    N3     O70       3.20806      .   S
    Zr65   O71       1.31673      .   S
    N3     O71       3.19722      .   S
