# CIF file generated by openbabel 2.4.90, see http://openbabel.sf.net
data_I
_chemical_name_common ''
_cell_length_a 13.996
_cell_length_b 14.622
_cell_length_c 18.585
_cell_angle_alpha 69.124
_cell_angle_beta 67.88
_cell_angle_gamma 61.406
_space_group_name_H-M_alt 'P 1'
_space_group_name_Hall 'P 1'
loop_
    _symmetry_equiv_pos_as_xyz
    x,y,z
loop_
    _atom_site_label
    _atom_site_type_symbol
    _atom_site_fract_x
    _atom_site_fract_y
    _atom_site_fract_z
    _atom_site_occupancy
    Zn0     Zn   0.55117   0.24562   0.31401   1.000
    Zn1     Zn   0.89430   0.05356   0.41561   1.000
    Zn2     Zn   0.11082   0.24793   0.20410   1.000
    Zn3     Zn   0.60699   0.54877   0.93217   1.000
    Zn4     Zn   0.41958   0.74410   0.71990   1.000
    Zn5     Zn   0.07646   0.93614   0.61836   1.000
    Zn6     Zn   0.85993   0.74179   0.82982   1.000
    Zn7     Zn   0.36376   0.44094   0.10180   1.000
    C8      C    0.52875   0.42083   0.16840   1.000
    C9      C    0.89959   0.36837   0.20023   1.000
    C10     C    0.79601   0.16323   0.27929   1.000
    C11     C    0.74340   0.41944   0.01071   1.000
    C12     C    0.11891   0.07246   0.34932   1.000
    C13     C    0.46804   0.12612   0.31830   1.000
    C14     C    0.23879   0.33069   0.23820   1.000
    O15     O    0.28496   0.58114   0.04166   1.000
    O16     O    0.89533   0.98129   0.63450   1.000
    O17     O    0.90932   0.82581   0.72111   1.000
    O18     O    0.73359   0.70434   0.84259   1.000
    C19     C    0.17224   0.07475   0.50676   1.000
    C20     C    0.44200   0.56888   0.86550   1.000
    C21     C    0.07117   0.62134   0.83374   1.000
    C22     C    0.17474   0.82648   0.75468   1.000
    C23     C    0.22736   0.57027   0.00000   1.000
    C24     C    0.85185   0.91725   0.68460   1.000
    C25     C    0.50272   0.86359   0.71560   1.000
    C26     C    0.73197   0.65902   0.79569   1.000
    C27     C    0.79853   0.91494   0.52720   1.000
    O28     O    0.47144   0.48478   0.11820   1.000
    O29     O    0.52631   0.32945   0.20500   1.000
    O30     O    0.70240   0.20847   0.32640   1.000
    O31     O    0.88311   0.09337   0.30297   1.000
    O32     O    0.94125   0.38963   0.23934   1.000
    O33     O    0.96135   0.29669   0.15886   1.000
    O34     O    0.75698   0.49287   0.01873   1.000
    O35     O    0.68580   0.40857   0.99231   1.000
    O36     O    0.07543   0.00842   0.39942   1.000
    O37     O    0.06145   0.16390   0.31280   1.000
    O38     O    0.23717   0.28537   0.19138   1.000
    O39     O    0.27970   0.40059   0.21435   1.000
    O40     O    0.57039   0.10468   0.27970   1.000
    O41     O    0.41637   0.19796   0.35950   1.000
    O42     O    0.26679   0.00059   0.49914   1.000
    O43     O    0.08041   0.06898   0.55862   1.000
    O44     O    0.49932   0.50495   0.91577   1.000
    O45     O    0.44445   0.66027   0.82891   1.000
    O46     O    0.26835   0.78126   0.70757   1.000
    O47     O    0.08764   0.89635   0.73101   1.000
    O48     O    0.02951   0.60008   0.79463   1.000
    O49     O    0.00941   0.69302   0.87510   1.000
    O50     O    0.21378   0.49684   0.00000   1.000
    O51     O    0.69105   0.58913   0.81963   1.000
    O52     O    0.40037   0.88503   0.75427   1.000
    O53     O    0.55439   0.79176   0.67445   1.000
    O54     O    0.70399   0.98910   0.53480   1.000
    O55     O    0.89036   0.92070   0.47534   1.000
    Ts56    Ts   0.52331   0.28461   0.33683   1.000
    Ts57    Ts   0.86454   0.09739   0.43235   1.000
    Ts58    Ts   0.14444   0.20915   0.18111   1.000
    Ts59    Ts   0.57646   0.59255   0.94895   1.000
    Ts60    Ts   0.44744   0.70511   0.69710   1.000
    Ts61    Ts   0.10622   0.89230   0.60162   1.000
    Ts62    Ts   0.82631   0.78057   0.85283   1.000
    Ts63    Ts   0.39429   0.39716   0.08502   1.000
    Og64    Og   0.55266   0.43252   0.17434   1.000
    Og65    Og   0.85855   0.38790   0.20143   1.000
    Og66    Og   0.79971   0.17200   0.25004   1.000
    Og67    Og   0.75574   0.38285   0.02860   1.000
    Og68    Og   0.16044   0.06092   0.34332   1.000
    Og69    Og   0.44790   0.10656   0.31691   1.000
    Og70    Og   0.22212   0.32194   0.26750   1.000
    Og71    Og   0.16629   0.11133   0.48893   1.000
    Og72    Og   0.41810   0.55720   0.85958   1.000
    Og73    Og   0.11221   0.60181   0.83254   1.000
    Og74    Og   0.17104   0.81772   0.78393   1.000
    Og75    Og   0.21502   0.60687   0.98987   1.000
    Og76    Og   0.81033   0.92879   0.69062   1.000
    Og77    Og   0.52287   0.88315   0.71701   1.000
    Og78    Og   0.74864   0.66777   0.76641   1.000
    Og79    Og   0.80448   0.87837   0.54503   1.000
loop_
    _geom_bond_atom_site_label_1
    _geom_bond_atom_site_label_2
    _geom_bond_distance
    _geom_bond_site_symmetry_2
    _ccdc_geom_bond_type
    O50    C23       1.17657      .   S
    C23    O15       1.39831      .   S
    C11    O34       1.24175      .   S
    C11    O35       1.07766  1_554   S
    O15    Zn7       1.94921      .   S
    Zn7    O28       2.04560      .   S
    Zn7    O39       2.00978      .   S
    O28    C8        1.26970      .   S
    O33    C9        1.28194      .   S
    O33    Zn2       2.24980  1_655   S
    C8     O29       1.27588      .   S
    O38    Zn2       2.00054      .   S
    O38    C14       1.27945      .   S
    C9     O32       1.27232      .   S
    Zn2    O37       2.01512      .   S
    O29    Zn0       2.02011      .   S
    O39    C14       1.27088      .   S
    C10    O31       1.27077      .   S
    C10    O30       1.28060      .   S
    O40    Zn0       2.23664      .   S
    O40    C13       1.27339      .   S
    O31    Zn1       2.00924      .   S
    O37    C12       1.27685      .   S
    Zn0    O30       2.00133      .   S
    Zn0    O41       2.09702      .   S
    C13    O41       1.28129      .   S
    C12    O36       1.26944      .   S
    O36    Zn1       2.21774  1_455   S
    Zn1    O55       1.87844  1_545   S
    O55    C27       1.30416      .   S
    O42    C19       1.24171      .   S
    C19    O43       1.30415      .   S
    C27    O54       1.24170      .   S
    O43    Zn5       1.87845  1_545   S
    Zn5    O16       2.21788  1_455   S
    Zn5    O47       2.00940      .   S
    O16    C24       1.26940      .   S
    O53    C25       1.28060      .   S
    O53    Zn4       2.09716      .   S
    C24    O17       1.27672      .   S
    O46    Zn4       2.00085      .   S
    O46    C22       1.28055      .   S
    C25    O52       1.27367      .   S
    Zn4    O52       2.23721      .   S
    Zn4    O45       2.02014      .   S
    O17    Zn6       2.01525      .   S
    O47    C22       1.27071      .   S
    O48    C21       1.27228      .   S
    C26    O51       1.27070      .   S
    C26    O18       1.28081      .   S
    O51    Zn3       2.00967      .   S
    O45    C20       1.27586      .   S
    Zn6    O18       2.00025      .   S
    Zn6    O49       2.25024  1_655   S
    C21    O49       1.28185      .   S
    C20    O44       1.27057      .   S
    O44    Zn3       2.04547      .   S
    Zn3    O35       1.94926      .   S
    Zn0    Ts56      0.70141      .   S
    Zn1    Ts57      0.68563      .   S
    Zn2    Ts58      0.70098      .   S
    Zn3    Ts59      0.68541      .   S
    Zn4    Ts60      0.70118      .   S
    Zn5    Ts61      0.68560      .   S
    Zn6    Ts62      0.70116      .   S
    Zn7    Ts63      0.68537      .   S
    C8     Og64      0.49931      .   S
    C9     Og65      0.49986      .   S
    C10    Og66      0.50006      .   S
    C11    Og67      0.50464      .   S
    C12    Og68      0.49941      .   S
    C13    Og69      0.49984      .   S
    C14    Og70      0.50061      .   S
    C19    Og71      0.50458      .   S
    C20    Og72      0.49905      .   S
    C21    Og73      0.49986      .   S
    C22    Og74      0.50006      .   S
    C23    Og75      0.46458  1_554   S
    C24    Og76      0.49939      .   S
    C25    Og77      0.50001      .   S
    C26    Og78      0.50021      .   S
    C27    Og79      0.50459      .   S
