# CIF file generated by openbabel 2.4.90, see http://openbabel.sf.net
data_I
_chemical_name_common ''
_cell_length_a 13.996
_cell_length_b 14.622
_cell_length_c 18.585
_cell_angle_alpha 69.124
_cell_angle_beta 67.88
_cell_angle_gamma 61.406
_space_group_name_H-M_alt 'P 1'
_space_group_name_Hall 'P 1'
loop_
    _symmetry_equiv_pos_as_xyz
    x,y,z
loop_
    _atom_site_label
    _atom_site_type_symbol
    _atom_site_fract_x
    _atom_site_fract_y
    _atom_site_fract_z
    _atom_site_occupancy
    Zn0     Zn   0.55117   0.24562   0.31401   1.000
    Zn1     Zn   0.89430   0.05356   0.41561   1.000
    Zn2     Zn   0.11082   0.24793   0.20410   1.000
    Zn3     Zn   0.60699   0.54877   0.93217   1.000
    Zn4     Zn   0.41958   0.74410   0.71990   1.000
    Zn5     Zn   0.07646   0.93614   0.61836   1.000
    Zn6     Zn   0.85993   0.74179   0.82982   1.000
    Zn7     Zn   0.36376   0.44094   0.10180   1.000
