# CIF file generated by openbabel 2.4.90, see http://openbabel.sf.net
data_I
_chemical_name_common ''
_cell_length_a 13.996
_cell_length_b 14.622
_cell_length_c 18.585
_cell_angle_alpha 69.124
_cell_angle_beta 67.88
_cell_angle_gamma 61.406
_space_group_name_H-M_alt 'P 1'
_space_group_name_Hall 'P 1'
loop_
    _symmetry_equiv_pos_as_xyz
    x,y,z
loop_
    _atom_site_label
    _atom_site_type_symbol
    _atom_site_fract_x
    _atom_site_fract_y
    _atom_site_fract_z
    _atom_site_occupancy
    C0      C    0.52875   0.42083   0.16840   1.000
    C1      C    0.89959   0.36837   0.20023   1.000
    C2      C    0.79601   0.16323   0.27929   1.000
    C3      C    0.74340   0.41944   0.01071   1.000
    C4      C    0.11891   0.07246   0.34932   1.000
    C5      C    0.46804   0.12612   0.31830   1.000
    C6      C    0.23879   0.33069   0.23820   1.000
    O7      O    0.28496   0.58114   0.04166   1.000
    O8      O    0.89533   0.98129   0.63450   1.000
    O9      O    0.90932   0.82581   0.72111   1.000
    O10     O    0.73359   0.70434   0.84259   1.000
    C11     C    0.17224   0.07475   0.50676   1.000
    C12     C    0.44200   0.56888   0.86550   1.000
    C13     C    0.07117   0.62134   0.83374   1.000
    C14     C    0.17474   0.82648   0.75468   1.000
    C15     C    0.22736   0.57027   0.00000   1.000
    C16     C    0.85185   0.91725   0.68460   1.000
    C17     C    0.50272   0.86359   0.71560   1.000
    C18     C    0.73197   0.65902   0.79569   1.000
    C19     C    0.79853   0.91494   0.52720   1.000
    O20     O    0.47144   0.48478   0.11820   1.000
    O21     O    0.52631   0.32945   0.20500   1.000
    O22     O    0.70240   0.20847   0.32640   1.000
    O23     O    0.88311   0.09337   0.30297   1.000
    O24     O    0.94125   0.38963   0.23934   1.000
    O25     O    0.96135   0.29669   0.15886   1.000
    O26     O    0.75698   0.49287   0.01873   1.000
    O27     O    0.68580   0.40857   0.99231   1.000
    O28     O    0.07543   0.00842   0.39942   1.000
    O29     O    0.06145   0.16390   0.31280   1.000
    O30     O    0.23717   0.28537   0.19138   1.000
    O31     O    0.27970   0.40059   0.21435   1.000
    O32     O    0.57039   0.10468   0.27970   1.000
    O33     O    0.41637   0.19796   0.35950   1.000
    O34     O    0.26679   0.00059   0.49914   1.000
    O35     O    0.08041   0.06898   0.55862   1.000
    O36     O    0.49932   0.50495   0.91577   1.000
    O37     O    0.44445   0.66027   0.82891   1.000
    O38     O    0.26835   0.78126   0.70757   1.000
    O39     O    0.08764   0.89635   0.73101   1.000
    O40     O    0.02951   0.60008   0.79463   1.000
    O41     O    0.00941   0.69302   0.87510   1.000
    O42     O    0.21378   0.49684   0.00000   1.000
    O43     O    0.69105   0.58913   0.81963   1.000
    O44     O    0.40037   0.88503   0.75427   1.000
    O45     O    0.55439   0.79176   0.67445   1.000
    O46     O    0.70399   0.98910   0.53480   1.000
    O47     O    0.89036   0.92070   0.47534   1.000
loop_
    _geom_bond_atom_site_label_1
    _geom_bond_atom_site_label_2
    _geom_bond_distance
    _geom_bond_site_symmetry_2
    _ccdc_geom_bond_type
    O42    C15       1.17657      .   S
    C15    O7        1.39831      .   S
    C3     O26       1.24175      .   S
    C3     O27       1.07766  1_554   S
    O20    C0        1.26970      .   S
    O25    C1        1.28194      .   S
    C0     O21       1.27588      .   S
    O30    C6        1.27945      .   S
    C1     O24       1.27232      .   S
    O31    C6        1.27088      .   S
    C2     O23       1.27077      .   S
    C2     O22       1.28060      .   S
    O32    C5        1.27339      .   S
    O29    C4        1.27685      .   S
    C5     O33       1.28129      .   S
    C4     O28       1.26944      .   S
    O47    C19       1.30416      .   S
    O34    C11       1.24171      .   S
    C11    O35       1.30415      .   S
    C19    O46       1.24170      .   S
    O8     C16       1.26940      .   S
    O45    C17       1.28060      .   S
    C16    O9        1.27672      .   S
    O38    C14       1.28055      .   S
    C17    O44       1.27367      .   S
    O39    C14       1.27071      .   S
    O40    C13       1.27228      .   S
    C18    O43       1.27070      .   S
    C18    O10       1.28081      .   S
    O37    C12       1.27586      .   S
    C13    O41       1.28185      .   S
    C12    O36       1.27057      .   S
