# CIF file generated by openbabel 2.4.90, see http://openbabel.sf.net
data_I
_chemical_name_common ''
_cell_length_a 13.996
_cell_length_b 14.622
_cell_length_c 18.585
_cell_angle_alpha 69.124
_cell_angle_beta 67.88
_cell_angle_gamma 61.406
_space_group_name_H-M_alt 'P 1'
_space_group_name_Hall 'P 1'
loop_
    _symmetry_equiv_pos_as_xyz
    x,y,z
loop_
    _atom_site_label
    _atom_site_type_symbol
    _atom_site_fract_x
    _atom_site_fract_y
    _atom_site_fract_z
    _atom_site_occupancy
    C0      C    0.52875   0.42083   0.16840   1.000
    C1      C    0.89959   0.36837   0.20023   1.000
    C2      C    0.79601   0.16323   0.27929   1.000
    C3      C    0.74340   0.41944   0.01071   1.000
    C4      C    0.11891   0.07246   0.34932   1.000
    C5      C    0.46804   0.12612   0.31830   1.000
    C6      C    0.23879   0.33069   0.23820   1.000
    C7      C    0.17224   0.07475   0.50676   1.000
    C8      C    0.44200   0.56888   0.86550   1.000
    C9      C    0.07117   0.62134   0.83374   1.000
    C10     C    0.17474   0.82648   0.75468   1.000
    C11     C    0.22736   0.57027   0.00000   1.000
    C12     C    0.85185   0.91725   0.68460   1.000
    C13     C    0.50272   0.86359   0.71560   1.000
    C14     C    0.73197   0.65902   0.79569   1.000
    C15     C    0.79853   0.91494   0.52720   1.000
