# CIF file generated by openbabel 2.4.90, see http://openbabel.sf.net
data_I
_chemical_name_common ''
_cell_length_a 13.996
_cell_length_b 14.622
_cell_length_c 18.585
_cell_angle_alpha 69.124
_cell_angle_beta 67.88
_cell_angle_gamma 61.406
_space_group_name_H-M_alt 'P 1'
_space_group_name_Hall 'P 1'
loop_
    _symmetry_equiv_pos_as_xyz
    x,y,z
loop_
    _atom_site_label
    _atom_site_type_symbol
    _atom_site_fract_x
    _atom_site_fract_y
    _atom_site_fract_z
    _atom_site_occupancy
    Zr0     Zr   0.36376   0.44094   0.10180   1.000
    Zr1     Zr   0.55117   0.24562   0.31401   1.000
    Zr2     Zr   0.89430   0.05356   0.41561   1.000
    Zr3     Zr   0.11082   0.24793   0.20410   1.000
    Zr4     Zr   0.60699   0.54877   0.93217   1.000
    Zr5     Zr   0.41958   0.74410   0.71990   1.000
    Zr6     Zr   0.07646   0.93614   0.61836   1.000
    Zr7     Zr   0.85993   0.74179   0.82982   1.000
    N8      N    0.36663   0.91267   0.04884   1.000
    O9      O    0.26394   0.05122   0.10923   1.000
    O10     O    0.46391   0.76356   0.00309   1.000
    N11     N    0.72582   0.84258   0.67315   1.000
    N12     N    0.23228   0.64121   0.87509   1.000
    N13     N    0.24495   0.14712   0.36081   1.000
    N14     N    0.31740   0.58234   0.47665   1.000
    O15     O    0.41339   0.44322   0.41245   1.000
    O16     O    0.21925   0.72636   0.53495   1.000
    N17     N    0.73848   0.34850   0.15857   1.000
    N18     N    0.60412   0.07705   0.98281   1.000
    O19     O    0.70681   0.93850   0.92357   1.000
    O20     O    0.50684   0.22616   0.02972   1.000
    N21     N    0.65336   0.40737   0.55732   1.000
    O22     O    0.75151   0.26334   0.49902   1.000
    O23     O    0.55736   0.54649   0.62151   1.000
    C24     C    0.93406   0.35157   0.19948   1.000
    O25     O    0.98508   0.31194   0.19048   1.000
    O26     O    0.86116   0.36232   0.18989   1.000
    C27     C    0.79384   0.15502   0.30289   1.000
    O28     O    0.78193   0.20873   0.24994   1.000
    O29     O    0.71031   0.19103   0.31155   1.000
    O30     O    0.84127   0.11424   0.33109   1.000
    C31     C    0.24203   0.54942   0.01389   1.000
    O32     O    0.28320   0.53023   0.04281   1.000
    O33     O    0.23130   0.59130   0.97192   1.000
    C34     C    0.50883   0.41169   0.16387   1.000
    O35     O    0.52379   0.34961   0.21169   1.000
    O36     O    0.58019   0.40256   0.16590   1.000
    O37     O    0.46322   0.43727   0.13693   1.000
    C38     C    0.79763   0.94158   0.51245   1.000
    O39     O    0.84498   0.96436   0.47896   1.000
    O40     O    0.78213   0.89646   0.56300   1.000
    C41     C    0.08526   0.08159   0.35385   1.000
    O42     O    0.08570   0.14376   0.30615   1.000
    O43     O    0.14917   0.09136   0.35220   1.000
    O44     O    0.03506   0.05629   0.38068   1.000
    C45     C    0.48493   0.14292   0.31917   1.000
    O46     O    0.41316   0.13243   0.32884   1.000
    C47     C    0.25189   0.33889   0.21464   1.000
    O48     O    0.28681   0.37983   0.18636   1.000
    O49     O    0.24063   0.28562   0.26806   1.000
    O50     O    0.21294   0.30277   0.20619   1.000
    C51     C    0.72873   0.44029   0.00725   1.000
    O52     O    0.73946   0.39841   0.05265   1.000
    O53     O    0.68756   0.45948   0.98474   1.000
    C54     C    0.03670   0.63815   0.83449   1.000
    O55     O    0.10960   0.62739   0.84400   1.000
    O56     O    0.98568   0.67778   0.84347   1.000
    C57     C    0.48583   0.84679   0.71477   1.000
    O58     O    0.55760   0.85727   0.70510   1.000
    C59     C    0.17691   0.83470   0.73109   1.000
    O60     O    0.18882   0.78098   0.78395   1.000
    O61     O    0.12948   0.87547   0.70289   1.000
    O62     O    0.26044   0.79869   0.72241   1.000
    C63     C    0.46192   0.57803   0.87006   1.000
    O64     O    0.39057   0.58716   0.86796   1.000
    O65     O    0.50754   0.55245   0.89701   1.000
    O66     O    0.44697   0.64011   0.82223   1.000
    C67     C    0.17315   0.04811   0.52151   1.000
    O68     O    0.18864   0.09324   0.47096   1.000
    O69     O    0.12579   0.02533   0.55500   1.000
    C70     C    0.71887   0.65083   0.81930   1.000
    O71     O    0.73013   0.70410   0.76588   1.000
    O72     O    0.75782   0.68695   0.82775   1.000
    O73     O    0.68394   0.60989   0.84760   1.000
    C74     C    0.88550   0.90812   0.68007   1.000
    O75     O    0.88507   0.84596   0.72777   1.000
    O76     O    0.82160   0.89834   0.68173   1.000
    O77     O    0.93570   0.93342   0.65325   1.000
    O78     O    0.50361   0.17069   0.31799   1.000
    O79     O    0.46715   0.81902   0.71595   1.000
loop_
    _geom_bond_atom_site_label_1
    _geom_bond_atom_site_label_2
    _geom_bond_distance
    _geom_bond_site_symmetry_2
    _ccdc_geom_bond_type
    N8     O9        2.24674  1_565   S
    Zr3    O9        3.29298      .   S
    N8     O10       2.22223      .   S
    Zr4    O10       3.24857  1_556   S
    N14    O15       2.29638      .   S
    Zr1    O15       3.34531      .   S
    N14    O16       2.28740      .   S
    Zr6    O16       3.31564      .   S
    N18    O19       2.23441  1_545   S
    Zr7    O19       3.28041      .   S
    N18    O20       2.23312  1_556   S
    Zr0    O20       3.25974      .   S
    N21    O22       2.28740      .   S
    Zr2    O22       3.31569      .   S
    N21    O23       2.29628      .   S
    Zr5    O23       3.34488      .   S
    C24    O25       0.67571      .   S
    Zr3    O25       1.62097  1_455   S
    C24    O26       1.03004      .   S
    N17    O26       2.12045      .   S
    C27    O28       1.02969      .   S
    N17    O28       2.13185      .   S
    C27    O29       0.99964      .   S
    Zr1    O29       1.96154      .   S
    C27    O30       0.85520      .   S
    Zr2    O30       1.74928      .   S
    C31    O32       0.81890      .   S
    Zr0    O32       1.63699      .   S
    C31    O33       0.81596  1_554   S
    N12    O33       1.68105      .   S
    C34    O35       1.02022      .   S
    Zr1    O35       2.00142      .   S
    C34    O36       0.95601      .   S
    N17    O36       1.92996      .   S
    C34    O37       0.82264      .   S
    Zr0    O37       1.71896      .   S
    C38    O39       0.83088      .   S
    Zr2    O39       1.64901  1_545   S
    C38    O40       0.95227      .   S
    N11    O40       1.91381      .   S
    C41    O42       1.01933      .   S
    Zr3    O42       1.99812      .   S
    C41    O43       0.95915      .   S
    N13    O43       1.94618      .   S
    C41    O44       0.85595      .   S
    Zr2    O44       1.84339  1_655   S
    C45    O46       1.02795      .   S
    N13    O46       2.12025      .   S
    C47    O48       0.85784      .   S
    Zr0    O48       1.75328      .   S
    C47    O49       1.03234      .   S
    N13    O49       2.13288      .   S
    C47    O50       0.99990      .   S
    Zr3    O50       1.96168      .   S
    C51    O52       0.86531      .   S
    N17    O52       1.83662      .   S
    C51    O53       0.72715  1_554   S
    Zr4    O53       1.56279      .   S
    C54    O55       1.02935      .   S
    N12    O55       2.11786      .   S
    C54    O56       0.67571  1_455   S
    Zr7    O56       1.62122      .   S
    C57    O58       1.02795      .   S
    N11    O58       2.12029      .   S
    C59    O60       1.02863      .   S
    N12    O60       2.12948      .   S
    C59    O61       0.85515      .   S
    Zr6    O61       1.74928      .   S
    C59    O62       0.99960      .   S
    Zr5    O62       1.96131      .   S
    C63    O64       0.95645      .   S
    N12    O64       1.93073      .   S
    C63    O65       0.82290      .   S
    Zr4    O65       1.71914      .   S
    C63    O66       1.02032      .   S
    Zr5    O66       2.00155      .   S
    C67    O68       0.95223      .   S
    N13    O68       1.91380      .   S
    C67    O69       0.83094      .   S
    Zr6    O69       1.64910  1_565   S
    C70    O71       1.03231      .   S
    N11    O71       2.13267      .   S
    C70    O72       0.99993      .   S
    Zr7    O72       1.96151      .   S
    C70    O73       0.85792      .   S
    Zr4    O73       1.75342      .   S
    C74    O75       1.01928      .   S
    Zr7    O75       1.99813      .   S
    C74    O76       0.95907      .   S
    N11    O76       1.94601      .   S
    C74    O77       0.85586      .   S
    Zr6    O77       1.84336  1_455   S
    C45    O78       0.56974      .   S
    Zr1    O78       1.50075      .   S
    Zr5    O79       1.50098      .   S
    C57    O79       0.56977      .   S
