# CIF file generated by openbabel 2.4.90, see http://openbabel.sf.net
data_I
_chemical_name_common ''
_cell_length_a 19.009
_cell_length_b 13.056
_cell_length_c 12.882
_cell_angle_alpha 111.49
_cell_angle_beta 105.097
_cell_angle_gamma 98.844
_space_group_name_H-M_alt 'P 1'
_space_group_name_Hall 'P 1'
loop_
    _symmetry_equiv_pos_as_xyz
    x,y,z
loop_
    _atom_site_label
    _atom_site_type_symbol
    _atom_site_fract_x
    _atom_site_fract_y
    _atom_site_fract_z
    _atom_site_occupancy
    Cd0     Cd   0.50950   0.39566   0.57509   1.000
    Cd1     Cd   0.49051   0.60431   0.42492   1.000
    Cd2     Cd   0.99052   0.60431   0.42492   1.000
    Cd3     Cd   0.00949   0.39566   0.57500   1.000
    C4      C    0.05581   0.20854   0.59819   1.000
    C5      C    0.55582   0.20854   0.59819   1.000
    C6      C    0.44155   0.58322   0.66209   1.000
    C7      C    0.94156   0.58322   0.66209   1.000
    C8      C    0.44419   0.79143   0.40182   1.000
    C9      C    0.94420   0.79143   0.40183   1.000
    C10     C    0.05845   0.41676   0.33792   1.000
    C11     C    0.55846   0.41676   0.33792   1.000
    O12     O    0.06883   0.22445   0.51305   1.000
    O13     O    0.56884   0.22445   0.51304   1.000
    O14     O    0.02438   0.26816   0.66513   1.000
    O15     O    0.52439   0.26816   0.66510   1.000
    O16     O    0.44563   0.53461   0.55717   1.000
    O17     O    0.94563   0.53460   0.55717   1.000
    O18     O    0.45777   0.54668   0.73961   1.000
    O19     O    0.95778   0.54668   0.73961   1.000
    O20     O    0.43117   0.77552   0.48696   1.000
    O21     O    0.93118   0.77552   0.48697   1.000
    O22     O    0.47562   0.73181   0.33488   1.000
    O23     O    0.97563   0.73181   0.33489   1.000
    O24     O    0.05436   0.46536   0.44283   1.000
    O25     O    0.55438   0.46536   0.44284   1.000
    O26     O    0.04224   0.45330   0.26041   1.000
    O27     O    0.54225   0.45331   0.26041   1.000
loop_
    _geom_bond_atom_site_label_1
    _geom_bond_atom_site_label_2
    _geom_bond_distance
    _geom_bond_site_symmetry_2
    _ccdc_geom_bond_type
    O26    C10       1.24641      .   S
    O27    C11       1.24641      .   S
    O22    C8        1.27515      .   S
    O22    Cd1       2.36323      .   S
    O23    C9        1.27515      .   S
    O23    Cd2       2.36314      .   S
    C10    O24       1.29482      .   S
    C11    O25       1.29493      .   S
    C8     O20       1.26491      .   S
    C9     O21       1.26488      .   S
    Cd1    O25       2.37831      .   S
    Cd2    O24       2.37809  1_655   S
    O13    C5        1.26496      .   S
    O12    C4        1.26487      .   S
    O17    Cd3       2.37789  1_655   S
    O17    C7        1.29482      .   S
    O16    Cd0       2.37832      .   S
    O16    C6        1.29487      .   S
    Cd3    O14       2.36407      .   S
    Cd0    O15       2.36296      .   S
    C5     O15       1.27494      .   S
    C4     O14       1.27516      .   S
    C7     O19       1.24645      .   S
    C6     O18       1.24647      .   S
    O16    Cd1       2.47247      .   S
    O17    Cd2       2.47253      .   S
    O24    Cd3       2.47137      .   S
    O25    Cd0       2.47238      .   S
