# CIF file generated by openbabel 2.4.90, see http://openbabel.sf.net
data_I
_chemical_name_common ''
_cell_length_a 19.009
_cell_length_b 13.056
_cell_length_c 12.882
_cell_angle_alpha 111.49
_cell_angle_beta 105.097
_cell_angle_gamma 98.844
_space_group_name_H-M_alt 'P 1'
_space_group_name_Hall 'P 1'
loop_
    _symmetry_equiv_pos_as_xyz
    x,y,z
loop_
    _atom_site_label
    _atom_site_type_symbol
    _atom_site_fract_x
    _atom_site_fract_y
    _atom_site_fract_z
    _atom_site_occupancy
    N0      N    0.75001   0.99999   0.50001   1.000
    N1      N    0.73512   0.10997   0.93260   1.000
    N2      N    0.23512   0.10997   0.93243   1.000
    N3      N    0.26489   0.88979   0.06720   1.000
    N4      N    0.00001   0.99999   0.00001   1.000
    N5      N    0.25000   0.99999   0.50001   1.000
    N6      N    0.76489   0.88979   0.06719   1.000
    N7      N    0.50000   0.99999   1.00000   1.000
    Zr8     Zr   0.50000   0.49999   0.50000   1.000
    O9      O    0.42086   0.70998   0.47180   1.000
    O10     O    0.43001   0.30475   0.39092   1.000
    O11     O    0.58310   0.58710   0.67825   1.000
    O12     O    0.57915   0.28999   0.52820   1.000
    O13     O    0.48201   0.65926   0.66821   1.000
    O14     O    0.57000   0.69517   0.60902   1.000
    O15     O    0.41691   0.41282   0.32166   1.000
    O16     O    0.51800   0.34072   0.33179   1.000
    Zr17    Zr   0.00000   0.49999   0.50000   1.000
    O18     O    0.98202   0.65926   0.66821   1.000
    O19     O    0.07915   0.28999   0.52820   1.000
    O20     O    0.92086   0.70998   0.47181   1.000
    O21     O    0.91691   0.41282   0.32171   1.000
    O22     O    0.07000   0.69517   0.60898   1.000
    O23     O    0.08310   0.58710   0.67823   1.000
    O24     O    0.93001   0.30475   0.39092   1.000
    O25     O    0.01799   0.34072   0.33179   1.000
loop_
    _geom_bond_atom_site_label_1
    _geom_bond_atom_site_label_2
    _geom_bond_distance
    _geom_bond_site_symmetry_2
    _ccdc_geom_bond_type
    Zr8    O9        3.40965      .   S
    N5     O9        5.32959      .   S
    Zr8    O10       2.36669      .   S
    N3     O10       5.29094  1_565   S
    Zr8    O11       2.16928      .   S
    N6     O11       4.99376  1_554   S
    Zr8    O12       3.40966      .   S
    N0     O12       5.32958  1_565   S
    Zr8    O13       2.53763      .   S
    N7     O13       4.79736      .   S
    Zr8    O14       2.36612      .   S
    N1     O14       5.28911  1_545   S
    Zr8    O15       2.17013      .   S
    N2     O15       4.99641  1_556   S
    Zr8    O16       2.53763      .   S
    N7     O16       4.79741  1_566   S
    Zr17   O18       2.53763  1_455   S
    N4     O18       4.79741  1_454   S
    Zr17   O19       3.40964      .   S
    N5     O19       5.32955  1_565   S
    Zr17   O20       3.40960  1_455   S
    N0     O20       5.32953      .   S
    Zr17   O21       2.16971  1_455   S
    N1     O21       4.99546  1_556   S
    Zr17   O22       2.36608      .   S
    N2     O22       5.28864  1_545   S
    Zr17   O23       2.16917      .   S
    N3     O23       4.99383  1_554   S
    Zr17   O24       2.36669  1_455   S
    N6     O24       5.29089  1_565   S
    Zr17   O25       2.53759      .   S
    N4     O25       4.79738  1_565   S
