# CIF file generated by openbabel 2.4.90, see http://openbabel.sf.net
data_I
_chemical_name_common ''
_cell_length_a 19.009
_cell_length_b 13.056
_cell_length_c 12.882
_cell_angle_alpha 111.49
_cell_angle_beta 105.097
_cell_angle_gamma 98.844
_space_group_name_H-M_alt 'P 1'
_space_group_name_Hall 'P 1'
loop_
    _symmetry_equiv_pos_as_xyz
    x,y,z
loop_
    _atom_site_label
    _atom_site_type_symbol
    _atom_site_fract_x
    _atom_site_fract_y
    _atom_site_fract_z
    _atom_site_occupancy
    Zr0     Zr   0.00949   0.39566   0.57500   1.000
    Zr1     Zr   0.50950   0.39566   0.57509   1.000
    Zr2     Zr   0.49051   0.60431   0.42492   1.000
    Zr3     Zr   0.99052   0.60431   0.42492   1.000
    Zr4     Zr   0.05581   0.20854   0.59819   1.000
    Zr5     Zr   0.55582   0.20854   0.59819   1.000
    Zr6     Zr   0.44155   0.58322   0.66209   1.000
    Zr7     Zr   0.94156   0.58322   0.66209   1.000
    Zr8     Zr   0.44419   0.79143   0.40182   1.000
    Zr9     Zr   0.94420   0.79143   0.40183   1.000
    Zr10    Zr   0.05845   0.41676   0.33792   1.000
    Zr11    Zr   0.55846   0.41676   0.33792   1.000
    Zr12    Zr   0.06883   0.22445   0.51305   1.000
    Zr13    Zr   0.56884   0.22445   0.51304   1.000
    Zr14    Zr   0.02438   0.26816   0.66513   1.000
    Zr15    Zr   0.52439   0.26816   0.66510   1.000
    Zr16    Zr   0.44563   0.53461   0.55717   1.000
    Zr17    Zr   0.94563   0.53460   0.55717   1.000
    Zr18    Zr   0.45777   0.54668   0.73961   1.000
    Zr19    Zr   0.95778   0.54668   0.73961   1.000
    Zr20    Zr   0.43117   0.77552   0.48696   1.000
    Zr21    Zr   0.93118   0.77552   0.48697   1.000
    Zr22    Zr   0.47562   0.73181   0.33488   1.000
    Zr23    Zr   0.97563   0.73181   0.33489   1.000
    Zr24    Zr   0.05436   0.46536   0.44283   1.000
    Zr25    Zr   0.55438   0.46536   0.44284   1.000
    Zr26    Zr   0.04224   0.45330   0.26041   1.000
    Zr27    Zr   0.54225   0.45331   0.26041   1.000
    O28     O    0.05034   0.43503   0.29917   1.000
    O29     O    0.55036   0.43503   0.29917   1.000
    O30     O    0.45991   0.76162   0.36835   1.000
    O31     O    0.48307   0.66806   0.37990   1.000
    O32     O    0.95992   0.76162   0.36836   1.000
    O33     O    0.98307   0.66806   0.37991   1.000
    O34     O    0.05640   0.44106   0.39038   1.000
    O35     O    0.55642   0.44106   0.39038   1.000
    O36     O    0.43768   0.78347   0.44439   1.000
    O37     O    0.93769   0.78348   0.44440   1.000
    O38     O    0.52244   0.53484   0.43388   1.000
    O39     O    0.02244   0.53484   0.43388   1.000
    O40     O    0.56233   0.21650   0.55562   1.000
    O41     O    0.06232   0.21650   0.55562   1.000
    O42     O    0.97756   0.46513   0.56609   1.000
    O43     O    0.94359   0.55891   0.60963   1.000
    O44     O    0.47756   0.46513   0.56613   1.000
    O45     O    0.44359   0.55891   0.60963   1.000
    O46     O    0.01693   0.33191   0.62007   1.000
    O47     O    0.51694   0.33191   0.62010   1.000
    O48     O    0.54010   0.23835   0.63165   1.000
    O49     O    0.04009   0.23835   0.63166   1.000
    O50     O    0.94967   0.56495   0.70085   1.000
    O51     O    0.44966   0.56495   0.70085   1.000
    O52     O    0.46807   0.56946   0.49105   1.000
    O53     O    0.96807   0.56946   0.49105   1.000
    O54     O    0.03193   0.43051   0.50892   1.000
    O55     O    0.53194   0.43051   0.50897   1.000
    N56     N    0.75001   0.99999   0.50001   1.000
    O57     O    0.65830   0.08000   0.55641   1.000
    O58     O    0.84172   0.91998   0.44361   1.000
    N59     N    0.73512   0.10997   0.93260   1.000
    O60     O    0.83382   0.32565   0.14341   1.000
    O61     O    0.64000   0.89036   0.71805   1.000
    N62     N    0.23512   0.10997   0.93243   1.000
    O63     O    0.13999   0.89035   0.71796   1.000
    O64     O    0.33381   0.32565   0.14333   1.000
    N65     N    0.26489   0.88979   0.06720   1.000
    O66     O    0.16619   0.67421   0.85647   1.000
    O67     O    0.36001   0.10951   0.28185   1.000
    N68     N    0.00001   0.99999   0.00001   1.000
    O69     O    0.96403   0.81853   0.83642   1.000
    O70     O    0.03598   0.18145   0.16359   1.000
    N71     N    0.25000   0.99999   0.50001   1.000
    O72     O    0.34171   0.91998   0.44361   1.000
    O73     O    0.15829   0.08000   0.55641   1.000
    N74     N    0.76489   0.88979   0.06719   1.000
    O75     O    0.66620   0.67421   0.85649   1.000
    O76     O    0.86002   0.10951   0.28183   1.000
    N77     N    0.50000   0.99999   1.00000   1.000
    O78     O    0.46402   0.81853   0.83642   1.000
    O79     O    0.53599   0.18145   0.16358   1.000
loop_
    _geom_bond_atom_site_label_1
    _geom_bond_atom_site_label_2
    _geom_bond_distance
    _geom_bond_site_symmetry_2
    _ccdc_geom_bond_type
    Zr26   O28       0.62321      .   S
    Zr10   O28       0.62321      .   S
    Zr27   O29       0.62321      .   S
    Zr11   O29       0.62321      .   S
    Zr22   O30       0.63758      .   S
    Zr8    O30       0.63758      .   S
    Zr22   O31       1.18161      .   S
    Zr2    O31       1.18161      .   S
    Zr23   O32       0.63757      .   S
    Zr9    O32       0.63757      .   S
    Zr23   O33       1.18157      .   S
    Zr3    O33       1.18157      .   S
    Zr10   O34       0.64741      .   S
    Zr24   O34       0.64741      .   S
    Zr11   O35       0.64747      .   S
    Zr25   O35       0.64747      .   S
    Zr8    O36       0.63245      .   S
    Zr20   O36       0.63245      .   S
    Zr9    O37       0.63244      .   S
    Zr21   O37       0.63244      .   S
    Zr2    O38       1.18915      .   S
    Zr25   O38       1.18915      .   S
    Zr3    O39       1.18905  1_655   S
    Zr24   O39       1.18905      .   S
    Zr13   O40       0.63248      .   S
    Zr5    O40       0.63248      .   S
    Zr12   O41       0.63243      .   S
    Zr4    O41       0.63243      .   S
    Zr17   O42       1.18894      .   S
    Zr0    O42       1.18894  1_455   S
    Zr17   O43       0.64741      .   S
    Zr7    O43       0.64741      .   S
    Zr16   O44       1.18916      .   S
    Zr1    O44       1.18916      .   S
    Zr16   O45       0.64743      .   S
    Zr6    O45       0.64743      .   S
    Zr0    O46       1.18204      .   S
    Zr14   O46       1.18204      .   S
    Zr1    O47       1.18148      .   S
    Zr15   O47       1.18148      .   S
    Zr5    O48       0.63747      .   S
    Zr15   O48       0.63747      .   S
    Zr4    O49       0.63758      .   S
    Zr14   O49       0.63758      .   S
    Zr7    O50       0.62322      .   S
    Zr19   O50       0.62322      .   S
    Zr6    O51       0.62323      .   S
    Zr18   O51       0.62323      .   S
    Zr16   O52       1.23624      .   S
    Zr2    O52       1.23624      .   S
    Zr17   O53       1.23626      .   S
    Zr3    O53       1.23626      .   S
    Zr24   O54       1.23569      .   S
    Zr0    O54       1.23569      .   S
    Zr25   O55       1.23619      .   S
    Zr1    O55       1.23619      .   S
    N56    O57       2.30694  1_565   S
    Zr5    O57       2.79123      .   S
    N56    O58       2.30692      .   S
    Zr9    O58       2.79123      .   S
    N59    O60       2.99043  1_556   S
    Zr3    O60       4.07848      .   S
    N59    O61       3.02100  1_545   S
    Zr2    O61       4.13466      .   S
    N62    O63       3.02051  1_545   S
    Zr3    O63       4.13415  1_655   S
    N62    O64       2.99090  1_556   S
    Zr2    O64       4.07892      .   S
    N65    O66       2.98931  1_554   S
    Zr0    O66       4.07769      .   S
    N65    O67       3.02221  1_565   S
    Zr1    O67       4.13591      .   S
    N68    O69       2.36949  1_454   S
    Zr7    O69       2.95060      .   S
    N68    O70       2.36949  1_565   S
    Zr10   O70       2.95060      .   S
    N71    O72       2.30694      .   S
    Zr8    O72       2.79125      .   S
    N71    O73       2.30693  1_565   S
    Zr4    O73       2.79125      .   S
    N74    O75       2.98919  1_554   S
    Zr1    O75       4.07736      .   S
    N74    O76       3.02214  1_565   S
    Zr0    O76       4.13542  1_455   S
    N77    O78       2.36946      .   S
    Zr6    O78       2.95057      .   S
    N77    O79       2.36951  1_566   S
    Zr11   O79       2.95062      .   S
