# CIF file generated by openbabel 2.4.90, see http://openbabel.sf.net
data_I
_chemical_name_common ''
_cell_length_a 19.824
_cell_length_b 20.617
_cell_length_c 13.36
_cell_angle_alpha 74.154
_cell_angle_beta 79.598
_cell_angle_gamma 61.879
_space_group_name_H-M_alt 'P 1'
_space_group_name_Hall 'P 1'
loop_
    _symmetry_equiv_pos_as_xyz
    x,y,z
loop_
    _atom_site_label
    _atom_site_type_symbol
    _atom_site_fract_x
    _atom_site_fract_y
    _atom_site_fract_z
    _atom_site_occupancy
    H0      H    0.34671   0.34576   0.01300   1.000
    H1      H    0.34670   0.84577   0.01300   1.000
    H2      H    0.84670   0.34576   0.01300   1.000
    H3      H    0.84670   0.84577   0.01300   1.000
    H4      H    0.33987   0.06001   0.00000   1.000
    H5      H    0.33987   0.56002   0.00000   1.000
    H6      H    0.83987   0.06001   0.00000   1.000
    H7      H    0.83986   0.56002   0.00000   1.000
    H8      H    0.07515   0.39776   0.67861   1.000
    H9      H    0.07515   0.89777   0.67861   1.000
    H10     H    0.57515   0.39776   0.67861   1.000
    H11     H    0.57514   0.89777   0.67861   1.000
    H12     H    0.06139   0.35752   0.00000   1.000
    H13     H    0.06138   0.85753   0.00000   1.000
    H14     H    0.56138   0.35752   0.00000   1.000
    H15     H    0.56138   0.85753   0.00000   1.000
    H16     H    0.37571   0.38252   0.68610   1.000
    H17     H    0.37571   0.88253   0.68610   1.000
    H18     H    0.87571   0.38252   0.68614   1.000
    H19     H    0.87570   0.88253   0.68610   1.000
    H20     H    0.35561   0.10733   0.68109   1.000
    H21     H    0.35561   0.60734   0.68109   1.000
    H22     H    0.85561   0.10733   0.68109   1.000
    H23     H    0.85560   0.60734   0.68109   1.000
    H24     H    0.15278   0.15493   0.98680   1.000
    H25     H    0.15278   0.65494   0.98680   1.000
    H26     H    0.65277   0.15493   0.98687   1.000
    H27     H    0.65277   0.65494   0.98680   1.000
    H28     H    0.15951   0.44059   0.99050   1.000
    H29     H    0.15951   0.94060   0.99050   1.000
    H30     H    0.65951   0.44059   0.99050   1.000
    H31     H    0.65951   0.94060   0.99050   1.000
    H32     H    0.42444   0.10268   0.32111   1.000
    H33     H    0.42444   0.60269   0.32110   1.000
    H34     H    0.92443   0.10268   0.32111   1.000
    H35     H    0.92443   0.60269   0.32110   1.000
    H36     H    0.43804   0.14334   0.99268   1.000
    H37     H    0.43804   0.64335   0.99268   1.000
    H38     H    0.93804   0.14334   0.99268   1.000
    H39     H    0.93804   0.64335   0.99268   1.000
    H40     H    0.12404   0.11783   0.31381   1.000
    H41     H    0.12404   0.61784   0.31381   1.000
    H42     H    0.62404   0.11783   0.31381   1.000
    H43     H    0.62404   0.61784   0.31381   1.000
    H44     H    0.14392   0.39325   0.31892   1.000
    H45     H    0.14392   0.89326   0.31892   1.000
    H46     H    0.64392   0.39325   0.31892   1.000
    H47     H    0.64391   0.89326   0.31892   1.000
    C48     C    0.08890   0.37750   0.75976   1.000
    C49     C    0.08890   0.87751   0.75976   1.000
    C50     C    0.58890   0.37750   0.75976   1.000
    C51     C    0.58890   0.87751   0.75976   1.000
    C52     C    0.08315   0.35506   0.92676   1.000
    C53     C    0.08314   0.85507   0.92676   1.000
    C54     C    0.58314   0.35506   0.92676   1.000
    C55     C    0.58314   0.85507   0.92676   1.000
    C56     C    0.36037   0.36343   0.76690   1.000
    C57     C    0.36036   0.86344   0.76690   1.000
    C58     C    0.86036   0.36343   0.76690   1.000
    C59     C    0.86036   0.86344   0.76690   1.000
    C60     C    0.34496   0.34437   0.93318   1.000
    C61     C    0.34496   0.84438   0.93318   1.000
    C62     C    0.84496   0.34437   0.93318   1.000
    C63     C    0.84496   0.84438   0.93318   1.000
    C64     C    0.34353   0.11304   0.76170   1.000
    C65     C    0.34353   0.61305   0.76170   1.000
    C66     C    0.84353   0.11304   0.76174   1.000
    C67     C    0.84352   0.61305   0.76174   1.000
    C68     C    0.33471   0.08966   0.92860   1.000
    C69     C    0.33471   0.58967   0.92860   1.000
    C70     C    0.83471   0.08966   0.92860   1.000
    C71     C    0.83471   0.58967   0.92860   1.000
    C72     C    0.25445   0.35743   0.50155   1.000
    C73     C    0.25445   0.85744   0.50155   1.000
    C74     C    0.75445   0.35743   0.50155   1.000
    C75     C    0.75444   0.85744   0.50155   1.000
    C76     C    0.29796   0.37131   0.39861   1.000
    C77     C    0.29796   0.87132   0.39861   1.000
    C78     C    0.79796   0.37131   0.39861   1.000
    C79     C    0.79795   0.87132   0.39861   1.000
    N80     N    0.81344   0.80872   0.90411   1.000
    N81     N    0.37507   0.37992   0.84984   1.000
    N82     N    0.37507   0.87993   0.84984   1.000
    N83     N    0.87506   0.37992   0.84984   1.000
    C84     C    0.34922   0.31258   0.34991   1.000
    C85     C    0.34922   0.81259   0.34991   1.000
    C86     C    0.84922   0.31258   0.34991   1.000
    C87     C    0.84921   0.81259   0.34991   1.000
    C88     C    0.28975   0.44356   0.34946   1.000
    C89     C    0.28975   0.94357   0.34946   1.000
    C90     C    0.78975   0.44356   0.34946   1.000
    C91     C    0.78975   0.94357   0.34946   1.000
    C92     C    0.39062   0.32551   0.25718   1.000
    C93     C    0.39062   0.82552   0.25718   1.000
    C94     C    0.89062   0.32551   0.25718   1.000
    C95     C    0.89061   0.82552   0.25718   1.000
    C96     C    0.33196   0.45598   0.25741   1.000
    C97     C    0.33196   0.95599   0.25741   1.000
    C98     C    0.83196   0.45598   0.25741   1.000
    C99     C    0.83195   0.95599   0.25741   1.000
    C100    C    0.38360   0.39732   0.20976   1.000
    C101    C    0.38360   0.89734   0.20976   1.000
    C102    C    0.88360   0.39732   0.20976   1.000
    C103    C    0.88360   0.89734   0.20976   1.000
    C104    C    0.43007   0.41212   0.11045   1.000
    C105    C    0.43007   0.91213   0.11045   1.000
    C106    C    0.93007   0.41212   0.11045   1.000
    C107    C    0.93007   0.91213   0.11045   1.000
    C108    C    0.41065   0.12304   0.23990   1.000
    C109    C    0.41064   0.62305   0.23998   1.000
    C110    C    0.91064   0.12304   0.23990   1.000
    C111    C    0.91064   0.62305   0.23998   1.000
    O112    O    0.18365   0.38869   0.50821   1.000
    O113    O    0.18365   0.88870   0.50821   1.000
    O114    O    0.68365   0.38870   0.50821   1.000
    O115    O    0.68365   0.88870   0.50821   1.000
    O116    O    0.98903   0.41678   0.11674   1.000
    C117    C    0.41631   0.14570   0.07296   1.000
    C118    C    0.41631   0.64571   0.07296   1.000
    C119    C    0.91631   0.14570   0.07296   1.000
    C120    C    0.91631   0.64571   0.07296   1.000
    C121    C    0.13931   0.13701   0.23305   1.000
    C122    C    0.13930   0.63702   0.23305   1.000
    C123    C    0.63930   0.13701   0.23305   1.000
    C124    C    0.63930   0.63702   0.23305   1.000
    C125    C    0.15457   0.15625   0.06675   1.000
    C126    C    0.15456   0.65626   0.06675   1.000
    C127    C    0.65456   0.15625   0.06675   1.000
    C128    C    0.65456   0.65626   0.06675   1.000
    C129    C    0.15594   0.38755   0.23826   1.000
    C130    C    0.15594   0.88756   0.23826   1.000
    C131    C    0.65593   0.38755   0.23826   1.000
    C132    C    0.65593   0.88756   0.23826   1.000
    C133    C    0.16468   0.41096   0.07137   1.000
    C134    C    0.16468   0.91097   0.07137   1.000
    C135    C    0.66467   0.41095   0.07137   1.000
    C136    C    0.66467   0.91096   0.07137   1.000
    C137    C    0.24544   0.14271   0.49840   1.000
    C138    C    0.24544   0.64272   0.49840   1.000
    C139    C    0.74544   0.14271   0.49840   1.000
    C140    C    0.74543   0.64272   0.49840   1.000
    C141    C    0.20196   0.12877   0.60134   1.000
    C142    C    0.20195   0.62878   0.60134   1.000
    C143    C    0.70195   0.12877   0.60134   1.000
    C144    C    0.70195   0.62878   0.60134   1.000
    C145    C    0.15071   0.18750   0.65005   1.000
    C146    C    0.15071   0.68751   0.65005   1.000
    C147    C    0.65071   0.18750   0.65005   1.000
    C148    C    0.65071   0.68751   0.65005   1.000
    C149    C    0.21017   0.05652   0.65050   1.000
    C150    C    0.21016   0.55653   0.65050   1.000
    C151    C    0.71016   0.05652   0.65050   1.000
    C152    C    0.71016   0.55653   0.65050   1.000
    C153    C    0.10931   0.17458   0.74278   1.000
    C154    C    0.10931   0.67459   0.74278   1.000
    C155    C    0.60931   0.17458   0.74278   1.000
    C156    C    0.60930   0.67459   0.74278   1.000
    C157    C    0.16795   0.04411   0.74255   1.000
    C158    C    0.16795   0.54412   0.74255   1.000
    C159    C    0.66795   0.04411   0.74255   1.000
    C160    C    0.66795   0.54412   0.74255   1.000
    C161    C    0.11629   0.10277   0.79018   1.000
    C162    C    0.11629   0.60278   0.79018   1.000
    C163    C    0.61629   0.10277   0.79018   1.000
    C164    C    0.61629   0.60278   0.79018   1.000
    C165    C    0.06979   0.08807   0.88900   1.000
    C166    C    0.06979   0.58808   0.88900   1.000
    C167    C    0.56978   0.08807   0.88900   1.000
    C168    C    0.56978   0.58808   0.88900   1.000
    N169    N    0.16022   0.33335   0.78943   1.000
    N170    N    0.16022   0.83336   0.78943   1.000
    N171    N    0.66022   0.33335   0.78943   1.000
    N172    N    0.66021   0.83336   0.78943   1.000
    N173    N    0.15638   0.31888   0.89706   1.000
    N174    N    0.15638   0.81889   0.89706   1.000
    N175    N    0.65638   0.31888   0.89706   1.000
    N176    N    0.65638   0.81889   0.89706   1.000
    N177    N    0.03841   0.39262   0.84370   1.000
    N178    N    0.03841   0.89263   0.84370   1.000
    N179    N    0.53840   0.39262   0.84370   1.000
    N180    N    0.53840   0.89263   0.84370   1.000
    N181    N    0.32316   0.32106   0.79684   1.000
    N182    N    0.32316   0.82107   0.79684   1.000
    N183    N    0.82315   0.32106   0.79684   1.000
    N184    N    0.82315   0.82107   0.79684   1.000
    N185    N    0.31344   0.30871   0.90411   1.000
    N186    N    0.31344   0.80872   0.90411   1.000
    N187    N    0.81344   0.30871   0.90411   1.000
    N188    N    0.87506   0.87993   0.84984   1.000
    N189    N    0.30640   0.17918   0.79018   1.000
    N190    N    0.30639   0.67919   0.79018   1.000
    N191    N    0.80639   0.17918   0.79018   1.000
    N192    N    0.80639   0.67919   0.79018   1.000
    N193    N    0.30076   0.16409   0.89807   1.000
    N194    N    0.30076   0.66410   0.89807   1.000
    N195    N    0.80075   0.16409   0.89807   1.000
    N196    N    0.80075   0.66410   0.89807   1.000
    N197    N    0.36229   0.05494   0.84652   1.000
    N198    N    0.36229   0.55495   0.84652   1.000
    N199    N    0.86228   0.05494   0.84652   1.000
    N200    N    0.86228   0.55495   0.84652   1.000
    N201    N    0.33931   0.16724   0.21038   1.000
    N202    N    0.33931   0.66725   0.21038   1.000
    N203    N    0.83931   0.16724   0.21038   1.000
    N204    N    0.83931   0.66725   0.21038   1.000
    N205    N    0.34309   0.18186   0.10275   1.000
    N206    N    0.34309   0.68187   0.10275   1.000
    N207    N    0.84309   0.18186   0.10275   1.000
    N208    N    0.84308   0.68187   0.10275   1.000
    N209    N    0.46110   0.10803   0.15598   1.000
    N210    N    0.46109   0.60804   0.15598   1.000
    N211    N    0.96109   0.10803   0.15598   1.000
    N212    N    0.96109   0.60804   0.15598   1.000
    N213    N    0.17646   0.17942   0.20314   1.000
    N214    N    0.17646   0.67943   0.20314   1.000
    N215    N    0.67646   0.17942   0.20314   1.000
    N216    N    0.67645   0.67943   0.20314   1.000
    N217    N    0.18610   0.19188   0.09586   1.000
    N218    N    0.18610   0.69189   0.09586   1.000
    N219    N    0.68609   0.19188   0.09586   1.000
    N220    N    0.68609   0.69189   0.09586   1.000
    N221    N    0.12454   0.12061   0.15007   1.000
    N222    N    0.12454   0.62063   0.15007   1.000
    N223    N    0.62453   0.12061   0.15007   1.000
    N224    N    0.62453   0.62062   0.15007   1.000
    N225    N    0.19304   0.32141   0.20983   1.000
    N226    N    0.19304   0.82142   0.20983   1.000
    N227    N    0.69304   0.32141   0.20983   1.000
    N228    N    0.69304   0.82142   0.20983   1.000
    N229    N    0.19863   0.33653   0.10194   1.000
    N230    N    0.19862   0.83653   0.10194   1.000
    N231    N    0.69862   0.33653   0.10194   1.000
    N232    N    0.69862   0.83653   0.10194   1.000
    N233    N    0.13715   0.44567   0.15349   1.000
    N234    N    0.13714   0.94568   0.15349   1.000
    N235    N    0.63714   0.44566   0.15349   1.000
    N236    N    0.63714   0.94568   0.15349   1.000
    O237    O    0.30072   0.31187   0.57487   1.000
    O238    O    0.30072   0.81188   0.57487   1.000
    O239    O    0.80071   0.31187   0.57487   1.000
    O240    O    0.80071   0.81188   0.57487   1.000
    O241    O    0.98902   0.91679   0.11674   1.000
    O242    O    0.48902   0.41678   0.11674   1.000
    O243    O    0.48902   0.91679   0.11674   1.000
    O244    O    0.40001   0.41870   0.02778   1.000
    O245    O    0.40000   0.91871   0.02778   1.000
    O246    O    0.90000   0.41870   0.02778   1.000
    O247    O    0.90000   0.91871   0.02778   1.000
    O248    O    0.19914   0.18837   0.42515   1.000
    O249    O    0.19913   0.68838   0.42515   1.000
    O250    O    0.69913   0.18837   0.42515   1.000
    O251    O    0.69913   0.68838   0.42515   1.000
    O252    O    0.31623   0.11142   0.49170   1.000
    O253    O    0.31623   0.61143   0.49170   1.000
    O254    O    0.81623   0.11142   0.49170   1.000
    O255    O    0.81623   0.61143   0.49170   1.000
    O256    O    0.51095   0.08318   0.88331   1.000
    O257    O    0.51095   0.58319   0.88331   1.000
    O258    O    0.00000   0.08318   0.88331   1.000
    O259    O    0.00000   0.58319   0.88331   1.000
    O260    O    0.09971   0.08184   0.97210   1.000
    O261    O    0.09971   0.58185   0.97210   1.000
    O262    O    0.59971   0.08184   0.97210   1.000
    O263    O    0.59970   0.58185   0.97210   1.000
    F264    F    0.35839   0.24157   0.39186   1.000
    F265    F    0.35839   0.74158   0.39186   1.000
    F266    F    0.85839   0.24157   0.39186   1.000
    F267    F    0.85839   0.74158   0.39186   1.000
    F268    F    0.24127   0.50315   0.39213   1.000
    F269    F    0.24127   0.00000   0.39213   1.000
    F270    F    0.74127   0.50315   0.39213   1.000
    F271    F    0.74126   0.00000   0.39213   1.000
    F272    F    0.43910   0.26652   0.21240   1.000
    F273    F    0.43910   0.76653   0.21240   1.000
    F274    F    0.93909   0.26652   0.21240   1.000
    F275    F    0.93909   0.76653   0.21240   1.000
    F276    F    0.32226   0.02725   0.21265   1.000
    F277    F    0.32225   0.52726   0.21265   1.000
    F278    F    0.82225   0.02725   0.21265   1.000
    F279    F    0.82225   0.52726   0.21265   1.000
    F280    F    0.14159   0.25849   0.60813   1.000
    F281    F    0.14159   0.75850   0.60813   1.000
    F282    F    0.64158   0.25849   0.60813   1.000
    F283    F    0.64158   0.75850   0.60813   1.000
    F284    F    0.25867   0.99692   0.60787   1.000
    F285    F    0.25867   0.49693   0.60787   1.000
    F286    F    0.75867   0.99692   0.60787   1.000
    F287    F    0.75866   0.49693   0.60787   1.000
    F288    F    0.06087   0.23354   0.78759   1.000
    F289    F    0.06086   0.73355   0.78759   1.000
    F290    F    0.56086   0.23354   0.78759   1.000
    F291    F    0.56086   0.73355   0.78759   1.000
    F292    F    0.17770   0.47284   0.78735   1.000
    F293    F    0.17770   0.97285   0.78735   1.000
    F294    F    0.67770   0.47284   0.78735   1.000
    F295    F    0.67770   0.97285   0.78735   1.000
loop_
    _geom_bond_atom_site_label_1
    _geom_bond_atom_site_label_2
    _geom_bond_distance
    _geom_bond_site_symmetry_2
    _ccdc_geom_bond_type
    H12    C52       1.00009  1_554   S
    H13    C53       1.00009  1_554   S
    H14    C54       1.00009  1_554   S
    H15    C55       1.00009  1_554   S
    H7     C71       0.97567  1_554   S
    H6     C70       0.97567  1_554   S
    H5     C69       0.97567  1_554   S
    H4     C68       0.97567  1_554   S
    H3     C63       1.08175  1_554   S
    H2     C62       1.08175  1_554   S
    H1     C61       1.08175  1_554   S
    H0     C60       1.08175  1_554   S
    O245   C105      1.29353      .   S
    O247   C107      1.29352      .   S
    O246   C106      1.29352      .   S
    O244   C104      1.29352      .   S
    C128   N220      1.32596      .   S
    C128   N224      1.36369      .   S
    C128   H27       1.08324  1_554   S
    C127   N219      1.32595      .   S
    C127   N223      1.36370      .   S
    C127   H26       1.08231  1_554   S
    C126   N218      1.32596      .   S
    C126   N222      1.36369      .   S
    C126   H25       1.08324  1_554   S
    C125   N217      1.32598      .   S
    C125   N221      1.36369      .   S
    C125   H24       1.08324  1_554   S
    C136   N232      1.32588      .   S
    C136   N236      1.36310      .   S
    C136   H31       1.08241  1_554   S
    C135   N231      1.32587      .   S
    C135   N235      1.36310      .   S
    C135   H30       1.08242  1_554   S
    C134   N230      1.32588      .   S
    C134   N234      1.36310      .   S
    C134   H29       1.08241  1_554   S
    C133   N229      1.32588      .   S
    C133   N233      1.36310      .   S
    C133   H28       1.08241  1_554   S
    C117   N205      1.32460      .   S
    C117   N209      1.36260      .   S
    C117   H36       1.08635  1_554   S
    C120   N208      1.32461      .   S
    C120   N212      1.36261      .   S
    C120   H39       1.08635  1_554   S
    C119   N207      1.32460      .   S
    C119   N211      1.36260      .   S
    C119   H38       1.08635  1_554   S
    C118   N206      1.32460      .   S
    C118   N210      1.36260      .   S
    C118   H37       1.08635  1_554   S
    N220   N216      1.37951      .   S
    N219   N215      1.37951      .   S
    N218   N214      1.37951      .   S
    N217   N213      1.37951      .   S
    N229   N225      1.38443      .   S
    N230   N226      1.38443      .   S
    N231   N227      1.38442      .   S
    N232   N228      1.38443      .   S
    N208   N204      1.38197      .   S
    N205   N201      1.38197      .   S
    N206   N202      1.38197      .   S
    N207   N203      1.38197      .   S
    C104   O242      1.23595      .   S
    C104   C100      1.51807      .   S
    C107   O241      1.23613      .   S
    C107   C103      1.51807      .   S
    C106   O116      1.23615      .   S
    C106   C102      1.51806      .   S
    C105   O243      1.23595      .   S
    C105   C101      1.51807      .   S
    N221   C121      1.35799      .   S
    N222   C122      1.35799      .   S
    N223   C123      1.35799      .   S
    N224   C124      1.35799      .   S
    N234   C130      1.35923      .   S
    N235   C131      1.35922      .   S
    N236   C132      1.35922      .   S
    N233   C129      1.35923      .   S
    N212   C111      1.35943      .   S
    N211   C110      1.35863      .   S
    N210   C109      1.35943      .   S
    N209   C108      1.35862      .   S
    N216   C124      1.33294      .   S
    N215   C123      1.33296      .   S
    N214   C122      1.33294      .   S
    N213   C121      1.33294      .   S
    C103   C95       1.39223      .   S
    C103   C99       1.39062      .   S
    C102   C94       1.39223      .   S
    C102   C98       1.39063      .   S
    C101   C93       1.39223      .   S
    C101   C97       1.39063      .   S
    C100   C92       1.39223      .   S
    C100   C96       1.39062      .   S
    N226   C130      1.33458      .   S
    N228   C132      1.33459      .   S
    N225   C129      1.33458      .   S
    N227   C131      1.33459      .   S
    N201   C108      1.33266      .   S
    N202   C109      1.33298      .   S
    N203   C110      1.33266      .   S
    N204   C111      1.33298      .   S
    F275   C95       1.35958      .   S
    F274   C94       1.35958      .   S
    F273   C93       1.35958      .   S
    F272   C92       1.35958      .   S
    F279   C98       1.35983      .   S
    F278   C99       1.35949  1_545   S
    F277   C96       1.35983      .   S
    F276   C97       1.35950  1_545   S
    C124   H43       1.08351      .   S
    C121   H40       1.08351      .   S
    C122   H41       1.08351      .   S
    C123   H42       1.08351      .   S
    C130   H45       1.08715      .   S
    C131   H46       1.08715      .   S
    C132   H47       1.08715      .   S
    C129   H44       1.08715      .   S
    C108   H32       1.08550      .   S
    C110   H34       1.08550      .   S
    C111   H35       1.08437      .   S
    C109   H33       1.08438      .   S
    C92    C84       1.39217      .   S
    C93    C85       1.39217      .   S
    C94    C86       1.39217      .   S
    C95    C87       1.39217      .   S
    C99    C91       1.39155      .   S
    C98    C90       1.39155      .   S
    C97    C89       1.39154      .   S
    C96    C88       1.39155      .   S
    C91    F271      1.30860  1_565   S
    C91    C79       1.39734      .   S
    C90    F270      1.35256      .   S
    C90    C78       1.39734      .   S
    C89    F269      1.30860  1_565   S
    C89    C77       1.39735      .   S
    C88    F268      1.35256      .   S
    C88    C76       1.39734      .   S
    C84    F264      1.35212      .   S
    C84    C76       1.39776      .   S
    C86    F266      1.35213      .   S
    C86    C78       1.39776      .   S
    C87    F267      1.35212      .   S
    C87    C79       1.39776      .   S
    C85    F265      1.35213      .   S
    C85    C77       1.39776      .   S
    C76    C72       1.51880      .   S
    C77    C73       1.51880      .   S
    C78    C74       1.51880      .   S
    C79    C75       1.51880      .   S
    O251   C140      1.30124      .   S
    O250   C139      1.30124      .   S
    O249   C138      1.30124      .   S
    O248   C137      1.30124      .   S
    O252   C137      1.23549      .   S
    O253   C138      1.23549      .   S
    O254   C139      1.23549      .   S
    O255   C140      1.23549      .   S
    C138   C142      1.51878      .   S
    C137   C141      1.51878      .   S
    C140   C144      1.51878      .   S
    C139   C143      1.51878      .   S
    C73    O113      1.23552      .   S
    C73    O238      1.30114      .   S
    C72    O112      1.23554      .   S
    C72    O237      1.30114      .   S
    C74    O114      1.23554      .   S
    C74    O239      1.30114      .   S
    C75    O115      1.23554      .   S
    C75    O240      1.30113      .   S
    C144   C148      1.39768      .   S
    C144   C152      1.39732      .   S
    C141   C145      1.39768      .   S
    C141   C149      1.39733      .   S
    C142   C146      1.39768      .   S
    C142   C150      1.39733      .   S
    C143   C147      1.39768      .   S
    C143   C151      1.39733      .   S
    F285   C150      1.35258      .   S
    F286   C151      1.35258  1_565   S
    F287   C152      1.35258      .   S
    F284   C149      1.35258  1_565   S
    F283   C148      1.35201      .   S
    F282   C147      1.35201      .   S
    F281   C146      1.35201      .   S
    F280   C145      1.35201      .   S
    C148   C156      1.39217      .   S
    C147   C155      1.39218      .   S
    C146   C154      1.39217      .   S
    C145   C153      1.39218      .   S
    C152   C160      1.39161      .   S
    C149   C157      1.39160      .   S
    C150   C158      1.39159      .   S
    C151   C159      1.39160      .   S
    H11    C51       1.08456      .   S
    H10    C50       1.08456      .   S
    H9     C49       1.08456      .   S
    H8     C48       1.08456      .   S
    H20    C64       1.08656      .   S
    H21    C65       1.08656      .   S
    H22    C66       1.08708      .   S
    H23    C67       1.08708      .   S
    H19    C59       1.08397      .   S
    H17    C57       1.08396      .   S
    H16    C56       1.08397      .   S
    H18    C58       1.08352      .   S
    C160   F294      1.35977      .   S
    C160   C164      1.39061      .   S
    C159   F295      1.35943  1_545   S
    C159   C163      1.39061      .   S
    C158   F292      1.35978      .   S
    C158   C162      1.39060      .   S
    C157   F293      1.35944  1_545   S
    C157   C161      1.39059      .   S
    C153   F288      1.35939      .   S
    C153   C161      1.39219      .   S
    C154   F289      1.35939      .   S
    C154   C162      1.39219      .   S
    C155   F290      1.35938      .   S
    C155   C163      1.39219      .   S
    C156   F291      1.35939      .   S
    C156   C164      1.39219      .   S
    C51    N172      1.33295      .   S
    C51    N180      1.35946      .   S
    C50    N171      1.33295      .   S
    C50    N179      1.35946      .   S
    C49    N170      1.33294      .   S
    C49    N178      1.35946      .   S
    C48    N169      1.33295      .   S
    C48    N177      1.35946      .   S
    C64    N189      1.33479      .   S
    C64    N197      1.35949      .   S
    C65    N190      1.33479      .   S
    C65    N198      1.35949      .   S
    C66    N191      1.33455      .   S
    C66    N199      1.35915      .   S
    C67    N192      1.33455      .   S
    C67    N200      1.35915      .   S
    C58    N183      1.33297      .   S
    C58    N83       1.35800      .   S
    C59    N184      1.33297      .   S
    C59    N188      1.35800      .   S
    C57    N182      1.33297      .   S
    C57    N82       1.35798      .   S
    C56    N181      1.33297      .   S
    C56    N81       1.35800      .   S
    N172   N176      1.38205      .   S
    N171   N175      1.38205      .   S
    N170   N174      1.38205      .   S
    N169   N173      1.38205      .   S
    N192   N196      1.38444      .   S
    C161   C165      1.51336      .   S
    C162   C166      1.51335      .   S
    C163   C167      1.51335      .   S
    C164   C168      1.51335      .   S
    N189   N193      1.38444      .   S
    N190   N194      1.38444      .   S
    N191   N195      1.38444      .   S
    N184   N80       1.37951      .   S
    N183   N187      1.37951      .   S
    N182   N186      1.37951      .   S
    N181   N185      1.37951      .   S
    N177   C52       1.36246      .   S
    N179   C54       1.36246      .   S
    N178   C53       1.36245      .   S
    N180   C55       1.36246      .   S
    N197   C68       1.36271      .   S
    N198   C69       1.36271      .   S
    N199   C70       1.36270      .   S
    N200   C71       1.36270      .   S
    N188   C63       1.36375      .   S
    N83    C62       1.36374      .   S
    N82    C61       1.36372      .   S
    N81    C60       1.36375      .   S
    O259   C166      1.45032      .   S
    O258   C165      1.45036      .   S
    O257   C168      1.23418      .   S
    O256   C167      1.23420      .   S
    C168   O263      1.29962      .   S
    C167   O262      1.29962      .   S
    C166   O261      1.29962      .   S
    C165   O260      1.29962      .   S
    N176   C55       1.32453      .   S
    N175   C54       1.32453      .   S
    N174   C53       1.32453      .   S
    N173   C52       1.32453      .   S
    N195   C70       1.32584      .   S
    N193   C68       1.32584      .   S
    N196   C71       1.32584      .   S
    N194   C69       1.32584      .   S
    N185   C60       1.32602      .   S
    N186   C61       1.32602      .   S
    N187   C62       1.32600      .   S
    N80    C63       1.32600      .   S
