# CIF file generated by openbabel 2.4.90, see http://openbabel.sf.net
data_I
_chemical_name_common ''
_cell_length_a 19.824
_cell_length_b 20.617
_cell_length_c 13.36
_cell_angle_alpha 74.154
_cell_angle_beta 79.598
_cell_angle_gamma 61.879
_space_group_name_H-M_alt 'P 1'
_space_group_name_Hall 'P 1'
loop_
    _symmetry_equiv_pos_as_xyz
    x,y,z
loop_
    _atom_site_label
    _atom_site_type_symbol
    _atom_site_fract_x
    _atom_site_fract_y
    _atom_site_fract_z
    _atom_site_occupancy
    Zn0     Zn   0.26611   0.79029   0.71877   1.000
    Zn1     Zn   0.76611   0.29028   0.71877   1.000
    Zn2     Zn   0.76611   0.79029   0.71877   1.000
    Zn3     Zn   0.42403   0.44195   0.87337   1.000
    Zn4     Zn   0.42403   0.94196   0.87337   1.000
    Zn5     Zn   0.92403   0.44195   0.87337   1.000
    Zn6     Zn   0.92402   0.94196   0.87337   1.000
    Zn7     Zn   0.23345   0.21022   0.28119   1.000
    Zn8     Zn   0.23345   0.71023   0.28119   1.000
    Zn9     Zn   0.73345   0.21022   0.28119   1.000
    Zn10    Zn   0.73344   0.71023   0.28119   1.000
    Zn11    Zn   0.07546   0.05874   0.12639   1.000
    Zn12    Zn   0.07546   0.55876   0.12639   1.000
    Zn13    Zn   0.57546   0.05874   0.12639   1.000
    Zn14    Zn   0.57546   0.55876   0.12639   1.000
    Zn15    Zn   0.24960   0.25049   0.30000   1.000
    Zn16    Zn   0.24960   0.75050   0.40000   1.000
    Zn17    Zn   0.74960   0.25049   0.30000   1.000
    Zn18    Zn   0.74960   0.75050   0.30000   1.000
    Zn19    Zn   0.26611   0.29028   0.71877   1.000
loop_
    _geom_bond_atom_site_label_1
    _geom_bond_atom_site_label_2
    _geom_bond_distance
    _geom_bond_site_symmetry_2
    _ccdc_geom_bond_type
    Zn7    Zn15      1.11733      .   S
    Zn8    Zn16      2.11303      .   S
    Zn9    Zn17      1.11731      .   S
    Zn10   Zn18      1.11731      .   S
