# CIF file generated by openbabel 2.4.90, see http://openbabel.sf.net
data_I
_chemical_name_common ''
_cell_length_a 19.824
_cell_length_b 20.617
_cell_length_c 13.36
_cell_angle_alpha 74.154
_cell_angle_beta 79.598
_cell_angle_gamma 61.879
_space_group_name_H-M_alt 'P 1'
_space_group_name_Hall 'P 1'
loop_
    _symmetry_equiv_pos_as_xyz
    x,y,z
loop_
    _atom_site_label
    _atom_site_type_symbol
    _atom_site_fract_x
    _atom_site_fract_y
    _atom_site_fract_z
    _atom_site_occupancy
    N0      N    0.84137   0.88421   0.30444   1.000
    N1      N    0.34138   0.38440   0.30444   1.000
    N2      N    0.34138   0.88421   0.30444   1.000
    N3      N    0.84138   0.38440   0.30444   1.000
    N4      N    0.15785   0.11573   0.69550   1.000
    N5      N    0.15784   0.61574   0.69550   1.000
    N6      N    0.65853   0.11573   0.69550   1.000
    N7      N    0.65852   0.61574   0.69550   1.000
    N8      N    0.90470   0.63885   0.15655   1.000
    N9      N    0.15111   0.15113   0.14993   1.000
    N10     N    0.15111   0.65114   0.14993   1.000
    N11     N    0.65111   0.15113   0.14994   1.000
    N12     N    0.65111   0.65114   0.14993   1.000
    N13     N    0.09480   0.36181   0.84219   1.000
    N14     N    0.09480   0.86182   0.84219   1.000
    N15     N    0.59479   0.36181   0.84219   1.000
    N16     N    0.66469   0.39085   0.15490   1.000
    N17     N    0.66469   0.89086   0.15490   1.000
    N18     N    0.34849   0.34940   0.85000   1.000
    N19     N    0.59479   0.86182   0.84219   1.000
    N20     N    0.83473   0.10975   0.84374   1.000
    N21     N    0.83473   0.60976   0.84374   1.000
    N22     N    0.33474   0.10975   0.84374   1.000
    N23     N    0.16470   0.39085   0.15490   1.000
    N24     N    0.16469   0.89086   0.15490   1.000
    N25     N    0.90470   0.13884   0.15654   1.000
    N26     N    0.40471   0.13884   0.15654   1.000
    N27     N    0.40470   0.63885   0.15655   1.000
    N28     N    0.34849   0.84941   0.85000   1.000
    N29     N    0.84848   0.34940   0.85000   1.000
    N30     N    0.84848   0.84941   0.85000   1.000
    N31     N    0.33474   0.60976   0.84374   1.000
    Zr32    Zr   0.74152   0.23036   0.29060   1.000
    O33     O    0.71726   0.28438   0.24775   1.000
    O34     O    0.79353   0.19707   0.24588   1.000
    O35     O    0.70978   0.20167   0.24332   1.000
    Zr36    Zr   0.07546   0.05874   0.12639   1.000
    O37     O    0.10548   0.00264   0.13691   1.000
    O38     O    0.10051   0.08958   0.13523   1.000
    O39     O    0.01848   0.08493   0.13763   1.000
    O40     O    0.09909   0.07588   0.99938   1.000
    Zr41    Zr   0.26611   0.79029   0.71877   1.000
    O42     O    0.28830   0.73127   0.75894   1.000
    O43     O    0.29383   0.80892   0.76134   1.000
    O44     O    0.28925   0.81647   0.59720   1.000
    O45     O    0.21005   0.81356   0.75846   1.000
    Zr46    Zr   0.26611   0.29028   0.71877   1.000
    O47     O    0.29384   0.30891   0.76134   1.000
    O48     O    0.28830   0.23126   0.75894   1.000
    O49     O    0.28925   0.31651   0.59720   1.000
    O50     O    0.21005   0.31355   0.75846   1.000
    Zr51    Zr   0.57546   0.05874   0.12639   1.000
    O52     O    0.60548   0.00264   0.13691   1.000
    O53     O    0.51848   0.08493   0.13763   1.000
    O54     O    0.60051   0.08958   0.13524   1.000
    O55     O    0.59926   0.07588   0.99938   1.000
    Zr56    Zr   0.07546   0.55876   0.12639   1.000
    O57     O    0.01847   0.58494   0.13763   1.000
    O58     O    0.10051   0.58959   0.13523   1.000
    O59     O    0.10548   0.50264   0.13691   1.000
    O60     O    0.09909   0.57589   0.99938   1.000
    Zr61    Zr   0.92403   0.44195   0.87337   1.000
    O62     O    0.89902   0.41106   0.86459   1.000
    O63     O    0.89398   0.49803   0.86261   1.000
    O64     O    0.90036   0.42466   0.00044   1.000
    O65     O    0.98102   0.41575   0.86187   1.000
    Zr66    Zr   0.57546   0.55876   0.12639   1.000
    O67     O    0.60548   0.50264   0.13691   1.000
    O68     O    0.51847   0.58494   0.13763   1.000
    O69     O    0.59925   0.57589   0.99938   1.000
    O70     O    0.60050   0.58959   0.13523   1.000
    Zr71    Zr   0.74152   0.73037   0.29059   1.000
    O72     O    0.70977   0.70168   0.24332   1.000
    O73     O    0.79353   0.69708   0.24588   1.000
    O74     O    0.71726   0.78439   0.24775   1.000
    Zr75    Zr   0.42403   0.44195   0.87337   1.000
    O76     O    0.39399   0.49803   0.86261   1.000
    O77     O    0.48102   0.41575   0.86187   1.000
    O78     O    0.39903   0.41106   0.86459   1.000
    O79     O    0.40037   0.42466   0.00044   1.000
    Zr80    Zr   0.42403   0.94196   0.87337   1.000
    O81     O    0.48102   0.91576   0.86187   1.000
    O82     O    0.39399   0.99803   0.86261   1.000
    O83     O    0.39902   0.91107   0.86459   1.000
    O84     O    0.40036   0.92462   0.00044   1.000
    Zr85    Zr   0.92402   0.94196   0.87337   1.000
    O86     O    0.89398   0.99803   0.86261   1.000
    O87     O    0.89902   0.91107   0.86459   1.000
    O88     O    0.90036   0.92462   0.00044   1.000
    O89     O    0.98102   0.91576   0.86187   1.000
    Zr90    Zr   0.24153   0.73037   0.34059   1.000
    O91     O    0.20978   0.70168   0.26832   1.000
    O92     O    0.21525   0.77936   0.27040   1.000
    O93     O    0.29353   0.69708   0.27088   1.000
    Zr94    Zr   0.76611   0.79029   0.71877   1.000
    O95     O    0.71004   0.81355   0.75846   1.000
    O96     O    0.78830   0.73127   0.75894   1.000
    O97     O    0.79383   0.80892   0.76134   1.000
    O98     O    0.78925   0.81647   0.59720   1.000
    Zr99    Zr   0.24153   0.23036   0.29060   1.000
    O100    O    0.21727   0.28438   0.24775   1.000
    O101    O    0.29354   0.19707   0.24588   1.000
    O102    O    0.20978   0.20167   0.24332   1.000
    Zr103   Zr   0.76611   0.29028   0.71877   1.000
    O104    O    0.71004   0.31355   0.75846   1.000
    O105    O    0.78830   0.23126   0.75894   1.000
    O106    O    0.79383   0.30891   0.76134   1.000
    O107    O    0.78925   0.31651   0.59720   1.000
    O108    O    0.21531   0.69646   0.43989   1.000
    O109    O    0.21531   0.19645   0.40864   1.000
    O110    O    0.71547   0.69646   0.40864   1.000
    O111    O    0.71547   0.19645   0.40864   1.000
loop_
    _geom_bond_atom_site_label_1
    _geom_bond_atom_site_label_2
    _geom_bond_distance
    _geom_bond_site_symmetry_2
    _ccdc_geom_bond_type
    Zr32   O33       1.02261      .   S
    N16    O33       2.06561      .   S
    Zr32   O34       1.10695      .   S
    N25    O34       2.24976      .   S
    Zr32   O35       1.35765      .   S
    N11    O35       2.52405      .   S
    Zr36   O37       1.00220      .   S
    N24    O37       1.99898  1_565   S
    Zr36   O38       1.01206      .   S
    N9     O38       2.01565      .   S
    Zr36   O39       0.99916      .   S
    N25    O39       1.99268  1_655   S
    Zr36   O40       1.66284  1_554   S
    N4     O40       3.98586      .   S
    Zr41   O42       1.08911      .   S
    N31    O42       2.24930      .   S
    Zr41   O43       1.09731      .   S
    N28    O43       2.26488      .   S
    Zr41   O44       1.62031      .   S
    N2     O44       3.90314      .   S
    Zr41   O45       1.08168      .   S
    N14    O45       2.23679      .   S
    Zr46   O47       1.09731      .   S
    N18    O47       2.26489      .   S
    Zr46   O48       1.08911      .   S
    N22    O48       2.24930      .   S
    Zr46   O49       1.62051      .   S
    N1     O49       3.90379      .   S
    Zr46   O50       1.08168      .   S
    N13    O50       2.23679      .   S
    Zr51   O52       1.00220      .   S
    N17    O52       1.99898  1_565   S
    Zr51   O53       0.99911      .   S
    N26    O53       1.99259      .   S
    Zr51   O54       1.01206      .   S
    N11    O54       2.01567      .   S
    Zr51   O55       1.66351  1_554   S
    N6     O55       3.98796      .   S
    Zr56   O57       0.99917      .   S
    N8     O57       1.99270  1_655   S
    Zr56   O58       1.01206      .   S
    N10    O58       2.01565      .   S
    Zr56   O59       1.00233      .   S
    N23    O59       1.99920      .   S
    Zr56   O60       1.66284  1_554   S
    N5     O60       3.98586      .   S
    Zr61   O62       1.01223      .   S
    N29    O62       2.01598      .   S
    Zr61   O63       1.00157      .   S
    N21    O63       1.99723      .   S
    Zr61   O64       1.66394  1_556   S
    N3     O64       3.98878      .   S
    Zr61   O65       0.99958      .   S
    N13    O65       1.99361  1_455   S
    Zr66   O67       1.00234      .   S
    N16    O67       1.99920      .   S
    Zr66   O68       0.99911      .   S
    N27    O68       1.99260      .   S
    Zr66   O69       1.66351  1_554   S
    N7     O69       3.98796      .   S
    Zr66   O70       1.01205      .   S
    N12    O70       2.01564      .   S
    Zr71   O72       1.35768      .   S
    N12    O72       2.52412      .   S
    Zr71   O73       1.10693      .   S
    N8     O73       2.24971      .   S
    Zr71   O74       1.02261      .   S
    N17    O74       2.06561      .   S
    Zr75   O76       1.00156      .   S
    N31    O76       1.99722      .   S
    Zr75   O77       0.99952      .   S
    N15    O77       1.99351      .   S
    Zr75   O78       1.01224      .   S
    N18    O78       2.01601      .   S
    Zr75   O79       1.66394  1_556   S
    N1     O79       3.98878      .   S
    Zr80   O81       0.99952      .   S
    N19    O81       1.99351      .   S
    Zr80   O82       1.00143      .   S
    N22    O82       1.99700  1_545   S
    Zr80   O83       1.01225      .   S
    N28    O83       2.01601      .   S
    Zr80   O84       1.66401  1_556   S
    N2     O84       3.98899      .   S
    Zr85   O86       1.00143      .   S
    N20    O86       1.99701  1_545   S
    Zr85   O87       1.01224      .   S
    N30    O87       2.01600      .   S
    Zr85   O88       1.66401  1_556   S
    N0     O88       3.98899      .   S
    Zr85   O89       0.99958      .   S
    N14    O89       1.99361  1_455   S
    Zr90   O91       1.60017      .   S
    N10    O91       2.76524      .   S
    Zr90   O92       1.15504      .   S
    N24    O92       2.26268      .   S
    Zr90   O93       1.31785      .   S
    N27    O93       2.43376      .   S
    Zr94   O95       1.08168      .   S
    N19    O95       2.23679      .   S
    Zr94   O96       1.08912      .   S
    N21    O96       2.24932      .   S
    Zr94   O97       1.09731      .   S
    N30    O97       2.26488      .   S
    Zr94   O98       1.62031      .   S
    N0     O98       3.90315      .   S
    Zr99   O100      1.02261      .   S
    N23    O100      2.06561      .   S
    Zr99   O101      1.10695      .   S
    N26    O101      2.24976      .   S
    Zr99   O102      1.35768      .   S
    N9     O102      2.52412      .   S
    Zr103  O104      1.08168      .   S
    N15    O104      2.23680      .   S
    Zr103  O105      1.08912      .   S
    N20    O105      2.24932      .   S
    Zr103  O106      1.09732      .   S
    N29    O106      2.26492      .   S
    Zr103  O107      1.62051      .   S
    N3     O107      3.90379      .   S
    N5     O108      3.60666      .   S
    Zr90   O108      1.45112      .   S
    N4     O109      3.93478      .   S
    Zr99   O109      1.64027      .   S
    Zr71   O110      1.63910      .   S
    N7     O110      3.93161      .   S
    N6     O111      3.93161      .   S
    Zr32   O111      1.63910      .   S
