# CIF file generated by openbabel 2.4.90, see http://openbabel.sf.net
data_I
_chemical_name_common 'VESTA_phase_1'
_cell_length_a 19.797
_cell_length_b 19.8
_cell_length_c 15.418
_cell_angle_alpha 74.151
_cell_angle_beta 74.164
_cell_angle_gamma 82.483
_space_group_name_H-M_alt 'P 1'
_space_group_name_Hall 'P 1'
loop_
    _symmetry_equiv_pos_as_xyz
    x,y,z
loop_
    _atom_site_label
    _atom_site_type_symbol
    _atom_site_fract_x
    _atom_site_fract_y
    _atom_site_fract_z
    _atom_site_occupancy
    Al0     Al   0.46826   0.15877   0.12571   1.000
    Al1     Al   0.46826   0.65877   0.12571   1.000
    Al2     Al   0.96827   0.15877   0.12571   1.000
    Al3     Al   0.96827   0.65877   0.12571   1.000
    Al4     Al   0.31678   0.44041   0.08138   1.000
    Al5     Al   0.31678   0.94040   0.08138   1.000
    Al6     Al   0.81678   0.44041   0.08138   1.000
    Al7     Al   0.81678   0.94040   0.08138   1.000
    Al8     Al   0.01677   0.40195   0.16700   1.000
    Al9     Al   0.01678   0.90194   0.16700   1.000
    Al10    Al   0.51678   0.40195   0.16700   1.000
    Al11    Al   0.51678   0.90194   0.16700   1.000
    Al12    Al   0.34123   0.03173   0.37426   1.000
    Al13    Al   0.34123   0.53173   0.37426   1.000
    Al14    Al   0.84123   0.03173   0.37426   1.000
    Al15    Al   0.84124   0.53173   0.37426   1.000
    Al16    Al   0.05959   0.18323   0.41858   1.000
    Al17    Al   0.05960   0.68323   0.41858   1.000
    Al18    Al   0.55960   0.18323   0.41858   1.000
    Al19    Al   0.55960   0.68323   0.41858   1.000
    Al20    Al   0.09805   0.48320   0.33304   1.000
    Al21    Al   0.09805   0.98320   0.33304   1.000
    Al22    Al   0.59805   0.48320   0.33304   1.000
    Al23    Al   0.59805   0.98320   0.33304   1.000
    Al24    Al   0.03175   0.34122   0.87430   1.000
    Al25    Al   0.03175   0.84122   0.87430   1.000
    Al26    Al   0.53175   0.34122   0.87430   1.000
    Al27    Al   0.53175   0.84122   0.87430   1.000
    Al28    Al   0.18323   0.05959   0.91863   1.000
    Al29    Al   0.18323   0.55958   0.91863   1.000
    Al30    Al   0.68323   0.05959   0.91863   1.000
    Al31    Al   0.68324   0.55958   0.91863   1.000
    Al32    Al   0.48323   0.09805   0.83301   1.000
    Al33    Al   0.48324   0.59805   0.83301   1.000
    Al34    Al   0.98324   0.09805   0.83301   1.000
    Al35    Al   0.98324   0.59805   0.83301   1.000
    Al36    Al   0.15878   0.46826   0.62574   1.000
    Al37    Al   0.15878   0.96826   0.62574   1.000
    Al38    Al   0.65878   0.46826   0.62574   1.000
    Al39    Al   0.65878   0.96826   0.62574   1.000
    Al40    Al   0.44042   0.31677   0.58140   1.000
    Al41    Al   0.44042   0.81676   0.58140   1.000
    Al42    Al   0.94042   0.31677   0.58140   1.000
    Al43    Al   0.94042   0.81676   0.58140   1.000
    Al44    Al   0.40196   0.01679   0.66696   1.000
    Al45    Al   0.40197   0.51679   0.66696   1.000
    Al46    Al   0.90197   0.01679   0.66696   1.000
    Al47    Al   0.90197   0.51679   0.66696   1.000
    P48     P    0.43816   0.32215   0.07900   1.000
    P49     P    0.43816   0.82214   0.07900   1.000
    P50     P    0.93816   0.32215   0.07900   1.000
    P51     P    0.93816   0.82214   0.07900   1.000
    P52     P    0.15757   0.46842   0.12571   1.000
    P53     P    0.15757   0.96841   0.12571   1.000
    P54     P    0.65757   0.46842   0.12571   1.000
    P55     P    0.65757   0.96841   0.12571   1.000
    P56     P    0.39431   0.02094   0.16895   1.000
    P57     P    0.39431   0.52093   0.16895   1.000
    P58     P    0.89431   0.02094   0.16895   1.000
    P59     P    0.89431   0.52093   0.16895   1.000
    P60     P    0.17782   0.06184   0.42105   1.000
    P61     P    0.17782   0.56183   0.42105   1.000
    P62     P    0.67782   0.06184   0.42105   1.000
    P63     P    0.67782   0.56183   0.42105   1.000
    P64     P    0.03157   0.34243   0.37433   1.000
    P65     P    0.03157   0.84242   0.37433   1.000
    P66     P    0.53157   0.34243   0.37433   1.000
    P67     P    0.53157   0.84242   0.37433   1.000
    P68     P    0.47908   0.10568   0.33101   1.000
    P69     P    0.47908   0.60568   0.33101   1.000
    P70     P    0.97908   0.10568   0.33101   1.000
    P71     P    0.97909   0.60568   0.33101   1.000
    P72     P    0.06185   0.17785   0.92101   1.000
    P73     P    0.06186   0.67785   0.92101   1.000
    P74     P    0.56186   0.17785   0.92101   1.000
    P75     P    0.56186   0.67785   0.92101   1.000
    P76     P    0.34244   0.03158   0.87430   1.000
    P77     P    0.34244   0.53158   0.87430   1.000
    P78     P    0.84244   0.03158   0.87430   1.000
    P79     P    0.84245   0.53158   0.87430   1.000
    P80     P    0.10570   0.47906   0.83106   1.000
    P81     P    0.10570   0.97906   0.83106   1.000
    P82     P    0.60570   0.47906   0.83106   1.000
    P83     P    0.60571   0.97906   0.83106   1.000
    P84     P    0.32219   0.43816   0.57896   1.000
    P85     P    0.32219   0.93815   0.57896   1.000
    P86     P    0.82219   0.43816   0.57896   1.000
    P87     P    0.82220   0.93815   0.57896   1.000
    P88     P    0.46844   0.15757   0.62567   1.000
    P89     P    0.46844   0.65757   0.62567   1.000
    P90     P    0.96844   0.15757   0.62567   1.000
    P91     P    0.96845   0.65757   0.62567   1.000
    P92     P    0.02093   0.39431   0.66899   1.000
    P93     P    0.02093   0.89431   0.66899   1.000
    P94     P    0.52093   0.39431   0.66899   1.000
    P95     P    0.52093   0.89431   0.66899   1.000
    O96     O    0.10586   0.41950   0.11814   1.000
    O97     O    0.10586   0.91949   0.11814   1.000
    O98     O    0.60586   0.41950   0.11814   1.000
    O99     O    0.60587   0.91949   0.11814   1.000
    O100    O    0.42603   0.24317   0.11473   1.000
    O101    O    0.42604   0.74317   0.11473   1.000
    O102    O    0.92604   0.24317   0.11473   1.000
    O103    O    0.92604   0.74317   0.11473   1.000
    O104    O    0.34006   0.00624   0.12272   1.000
    O105    O    0.34006   0.50624   0.12272   1.000
    O106    O    0.84006   0.00625   0.12272   1.000
    O107    O    0.84006   0.50624   0.12272   1.000
    O108    O    0.12704   0.49842   0.21167   1.000
    O109    O    0.12704   0.99841   0.21160   1.000
    O110    O    0.62704   0.49842   0.21160   1.000
    O111    O    0.62704   0.99841   0.21160   1.000
    O112    O    0.40457   0.10055   0.13711   1.000
    O113    O    0.40457   0.60055   0.13711   1.000
    O114    O    0.90457   0.10055   0.13711   1.000
    O115    O    0.90457   0.60055   0.13711   1.000
    O116    O    0.49576   0.33880   0.11938   1.000
    O117    O    0.49577   0.83880   0.11938   1.000
    O118    O    0.99577   0.33880   0.11930   1.000
    O119    O    0.99577   0.83880   0.11938   1.000
    O120    O    0.36698   0.49716   0.27577   1.000
    O121    O    0.36698   0.99716   0.27577   1.000
    O122    O    0.86698   0.49716   0.27577   1.000
    O123    O    0.86698   0.99716   0.27577   1.000
    O124    O    0.22745   0.42506   0.13307   1.000
    O125    O    0.22746   0.92505   0.13307   1.000
    O126    O    0.72746   0.42506   0.13307   1.000
    O127    O    0.72746   0.92505   0.13307   1.000
    O128    O    0.17011   0.03148   0.03990   1.000
    O129    O    0.17011   0.53148   0.03990   1.000
    O130    O    0.67011   0.03148   0.03990   1.000
    O131    O    0.67011   0.53148   0.03990   1.000
    O132    O    0.46552   0.48061   0.13850   1.000
    O133    O    0.46553   0.98061   0.13850   1.000
    O134    O    0.96553   0.48061   0.13850   1.000
    O135    O    0.96553   0.98061   0.13850   1.000
    O136    O    0.36810   0.36267   0.11164   1.000
    O137    O    0.36811   0.86266   0.11164   1.000
    O138    O    0.86811   0.36267   0.11164   1.000
    O139    O    0.86811   0.86266   0.11164   1.000
    O140    O    0.46128   0.34314   0.97175   1.000
    O141    O    0.46128   0.84314   0.97175   1.000
    O142    O    0.96128   0.34314   0.97175   1.000
    O143    O    0.96129   0.84314   0.97175   1.000
    O144    O    0.08050   0.39412   0.38190   1.000
    O145    O    0.08050   0.89412   0.38190   1.000
    O146    O    0.58050   0.39412   0.38190   1.000
    O147    O    0.58050   0.89412   0.38190   1.000
    O148    O    0.25681   0.07393   0.38540   1.000
    O149    O    0.25681   0.57393   0.38540   1.000
    O150    O    0.75681   0.07393   0.38540   1.000
    O151    O    0.75682   0.57393   0.38540   1.000
    O152    O    0.49377   0.15995   0.37720   1.000
    O153    O    0.49377   0.65994   0.37720   1.000
    O154    O    0.99377   0.15995   0.37720   1.000
    O155    O    0.99377   0.65994   0.37720   1.000
    O156    O    0.00153   0.37298   0.28839   1.000
    O157    O    0.00153   0.87298   0.28839   1.000
    O158    O    0.50153   0.37298   0.28839   1.000
    O159    O    0.50153   0.87298   0.28839   1.000
    O160    O    0.39946   0.09544   0.36281   1.000
    O161    O    0.39946   0.59543   0.36281   1.000
    O162    O    0.89946   0.09544   0.36281   1.000
    O163    O    0.89946   0.59543   0.36281   1.000
    O164    O    0.16119   0.00423   0.38068   1.000
    O165    O    0.16119   0.50423   0.38068   1.000
    O166    O    0.66119   0.00423   0.38068   1.000
    O167    O    0.66120   0.50423   0.38068   1.000
    O168    O    0.00288   0.13297   0.22410   1.000
    O169    O    0.00288   0.63296   0.22410   1.000
    O170    O    0.50288   0.13297   0.22410   1.000
    O171    O    0.50288   0.63296   0.22410   1.000
    O172    O    0.07493   0.27256   0.36693   1.000
    O173    O    0.07493   0.77255   0.36693   1.000
    O174    O    0.57493   0.27256   0.36693   1.000
    O175    O    0.57494   0.77255   0.36693   1.000
    O176    O    0.46853   0.32987   0.46015   1.000
    O177    O    0.46853   0.82987   0.46015   1.000
    O178    O    0.96853   0.32987   0.46015   1.000
    O179    O    0.96853   0.82987   0.46015   1.000
    O180    O    0.01938   0.03447   0.36153   1.000
    O181    O    0.01939   0.53446   0.36153   1.000
    O182    O    0.51939   0.03447   0.36153   1.000
    O183    O    0.51939   0.53446   0.36153   1.000
    O184    O    0.13733   0.13190   0.38830   1.000
    O185    O    0.13733   0.63190   0.38830   1.000
    O186    O    0.63733   0.13190   0.38830   1.000
    O187    O    0.63733   0.63190   0.38830   1.000
    O188    O    0.15674   0.03876   0.52832   1.000
    O189    O    0.15674   0.53875   0.52832   1.000
    O190    O    0.65675   0.03876   0.52832   1.000
    O191    O    0.65675   0.53875   0.52832   1.000
    O192    O    0.39415   0.08050   0.88186   1.000
    O193    O    0.39415   0.58049   0.88186   1.000
    O194    O    0.89415   0.08050   0.88186   1.000
    O195    O    0.89416   0.58049   0.88186   1.000
    O196    O    0.07398   0.25683   0.88528   1.000
    O197    O    0.07398   0.75682   0.88528   1.000
    O198    O    0.57398   0.25683   0.88528   1.000
    O199    O    0.57398   0.75682   0.88528   1.000
    O200    O    0.15995   0.49375   0.87720   1.000
    O201    O    0.15996   0.99375   0.87728   1.000
    O202    O    0.65996   0.49375   0.87728   1.000
    O203    O    0.65996   0.99375   0.87720   1.000
    O204    O    0.37297   0.00158   0.78834   1.000
    O205    O    0.37298   0.50157   0.78834   1.000
    O206    O    0.87297   0.00158   0.78834   1.000
    O207    O    0.87298   0.50157   0.78834   1.000
    O208    O    0.09544   0.39944   0.86200   1.000
    O209    O    0.09544   0.89944   0.86200   1.000
    O210    O    0.59545   0.39944   0.86200   1.000
    O211    O    0.59545   0.89944   0.86200   1.000
    O212    O    0.00424   0.16120   0.88063   1.000
    O213    O    0.00425   0.66119   0.88063   1.000
    O214    O    0.50425   0.16120   0.88063   1.000
    O215    O    0.50425   0.66119   0.88063   1.000
    O216    O    0.13303   0.00284   0.72424   1.000
    O217    O    0.13303   0.50283   0.72424   1.000
    O218    O    0.63303   0.00284   0.72424   1.000
    O219    O    0.63304   0.50283   0.72424   1.000
    O220    O    0.27256   0.07494   0.86694   1.000
    O221    O    0.27256   0.57494   0.86694   1.000
    O222    O    0.77256   0.07494   0.86694   1.000
    O223    O    0.77256   0.57494   0.86694   1.000
    O224    O    0.32990   0.46851   0.96011   1.000
    O225    O    0.32990   0.96851   0.96011   1.000
    O226    O    0.82990   0.46852   0.96011   1.000
    O227    O    0.82991   0.96851   0.96011   1.000
    O228    O    0.03449   0.01938   0.86150   1.000
    O229    O    0.03449   0.51938   0.86150   1.000
    O230    O    0.53449   0.01938   0.86150   1.000
    O231    O    0.53449   0.51938   0.86150   1.000
    O232    O    0.13190   0.13733   0.88837   1.000
    O233    O    0.13191   0.63732   0.88837   1.000
    O234    O    0.63191   0.13733   0.88837   1.000
    O235    O    0.63191   0.63732   0.88837   1.000
    O236    O    0.03873   0.15685   0.02826   1.000
    O237    O    0.03873   0.65685   0.02826   1.000
    O238    O    0.53873   0.15685   0.02826   1.000
    O239    O    0.53873   0.65685   0.02826   1.000
    O240    O    0.41951   0.10587   0.61811   1.000
    O241    O    0.41951   0.60587   0.61811   1.000
    O242    O    0.91951   0.10587   0.61811   1.000
    O243    O    0.91952   0.60587   0.61811   1.000
    O244    O    0.24320   0.42606   0.61461   1.000
    O245    O    0.24320   0.92606   0.61460   1.000
    O246    O    0.74320   0.42606   0.61460   1.000
    O247    O    0.74321   0.92606   0.61461   1.000
    O248    O    0.00624   0.34005   0.62280   1.000
    O249    O    0.00625   0.84004   0.62280   1.000
    O250    O    0.50625   0.34005   0.62280   1.000
    O251    O    0.50625   0.84005   0.62280   1.000
    O252    O    0.49848   0.12701   0.71162   1.000
    O253    O    0.49848   0.62701   0.71162   1.000
    O254    O    0.99848   0.12701   0.71162   1.000
    O255    O    0.99849   0.62701   0.71162   1.000
    O256    O    0.10055   0.40456   0.63720   1.000
    O257    O    0.10056   0.90456   0.63720   1.000
    O258    O    0.60056   0.40456   0.63720   1.000
    O259    O    0.60056   0.90456   0.63720   1.000
    O260    O    0.33882   0.49577   0.61932   1.000
    O261    O    0.33882   0.99576   0.61930   1.000
    O262    O    0.83882   0.49577   0.61930   1.000
    O263    O    0.83883   0.99576   0.61932   1.000
    O264    O    0.49713   0.36703   0.77582   1.000
    O265    O    0.49714   0.86702   0.77582   1.000
    O266    O    0.99714   0.36703   0.77582   1.000
    O267    O    0.99714   0.86702   0.77582   1.000
    O268    O    0.42508   0.22744   0.63300   1.000
    O269    O    0.42508   0.72743   0.63300   1.000
    O270    O    0.92508   0.22744   0.63300   1.000
    O271    O    0.92508   0.72743   0.63300   1.000
    O272    O    0.03148   0.17013   0.53986   1.000
    O273    O    0.03148   0.67012   0.53986   1.000
    O274    O    0.53148   0.17013   0.53986   1.000
    O275    O    0.53149   0.67012   0.53986   1.000
    O276    O    0.48063   0.46553   0.63848   1.000
    O277    O    0.48063   0.96552   0.63848   1.000
    O278    O    0.98063   0.46553   0.63848   1.000
    O279    O    0.98063   0.96552   0.63848   1.000
    O280    O    0.36268   0.36810   0.61168   1.000
    O281    O    0.36269   0.86809   0.61168   1.000
    O282    O    0.86269   0.36810   0.61168   1.000
    O283    O    0.86269   0.86809   0.61168   1.000
    O284    O    0.34327   0.46124   0.47169   1.000
    O285    O    0.34327   0.96123   0.47169   1.000
    O286    O    0.84327   0.46124   0.47169   1.000
    O287    O    0.84327   0.96123   0.47169   1.000
loop_
    _geom_bond_atom_site_label_1
    _geom_bond_atom_site_label_2
    _geom_bond_distance
    _geom_bond_site_symmetry_2
    _ccdc_geom_bond_type
    O236   Al2       1.75448  1_455   S
    O236   P72       1.54204  1_554   S
    O237   Al3       1.75448  1_455   S
    O237   P73       1.54205  1_554   S
    O238   Al0       1.75455      .   S
    O238   P74       1.54205  1_554   S
    O239   Al1       1.75456      .   S
    O239   P75       1.54204  1_554   S
    O128   P53       1.53979  1_545   S
    O128   Al28      1.75429  1_554   S
    O129   P52       1.53967      .   S
    O129   Al29      1.75428  1_554   S
    O130   P55       1.53979  1_545   S
    O130   Al30      1.75429  1_554   S
    O131   P54       1.53967      .   S
    O131   Al31      1.75428  1_554   S
    P48    O136      1.53909      .   S
    P48    O100      1.53681      .   S
    P48    O116      1.54761      .   S
    P48    O140      1.54205  1_554   S
    P51    O139      1.53909      .   S
    P51    O103      1.53681      .   S
    P51    O119      1.54759      .   S
    P51    O143      1.54205  1_554   S
    P50    O138      1.53909      .   S
    P50    O102      1.53681      .   S
    P50    O118      1.54679      .   S
    P50    O142      1.54205  1_554   S
    P49    O137      1.53909      .   S
    P49    O101      1.53681      .   S
    P49    O117      1.54759      .   S
    P49    O141      1.54204  1_554   S
    Al7    O139      1.75405      .   S
    Al7    O106      1.75772  1_565   S
    Al7    O127      1.75888      .   S
    Al7    O227      1.75428  1_554   S
    Al6    O138      1.75403      .   S
    Al6    O107      1.75757      .   S
    Al6    O126      1.75890      .   S
    Al6    O226      1.75429  1_554   S
    Al5    O137      1.75405      .   S
    Al5    O104      1.75771  1_565   S
    Al5    O125      1.75888      .   S
    Al5    O225      1.75428  1_554   S
    Al4    O136      1.75403      .   S
    Al4    O105      1.75759      .   S
    Al4    O124      1.75890      .   S
    Al4    O224      1.75428  1_554   S
    O103   Al3       1.75417      .   S
    O102   Al2       1.75418      .   S
    O101   Al1       1.75417      .   S
    O100   Al0       1.75418      .   S
    O99    P55       1.54469      .   S
    O99    Al11      1.75807      .   S
    O97    P53       1.54469      .   S
    O97    Al9       1.75809      .   S
    O98    P54       1.54470      .   S
    O98    Al10      1.75807      .   S
    O96    P52       1.54469      .   S
    O96    Al8       1.75807      .   S
    O118   Al8       1.75563  1_655   S
    O119   Al9       1.75479  1_655   S
    O117   Al11      1.75485      .   S
    O116   Al10      1.75485      .   S
    O107   P59       1.53591      .   S
    O106   P58       1.53590      .   S
    O105   P57       1.53590      .   S
    O104   P56       1.53591      .   S
    Al0    O112      1.76031      .   S
    Al0    O170      1.75622      .   S
    P55    O127      1.54460      .   S
    P55    O111      1.53974      .   S
    P54    O126      1.54458      .   S
    P54    O110      1.53974      .   S
    P53    O125      1.54460      .   S
    P53    O109      1.53974      .   S
    P52    O124      1.54460      .   S
    P52    O108      1.54066      .   S
    Al1    O113      1.76029      .   S
    Al1    O171      1.75622      .   S
    Al2    O114      1.76031      .   S
    Al2    O168      1.75615  1_655   S
    Al3    O115      1.76029      .   S
    Al3    O169      1.75615  1_655   S
    O114   P58       1.54076      .   S
    O112   P56       1.54076      .   S
    O113   P57       1.54076      .   S
    O115   P59       1.54076      .   S
    O135   Al9       1.76196  1_655   S
    O135   P58       1.54752  1_565   S
    O134   Al8       1.76197  1_655   S
    O134   P59       1.54735      .   S
    O133   Al11      1.76204      .   S
    O133   P56       1.54752  1_565   S
    O132   Al10      1.76204      .   S
    O132   P57       1.54735      .   S
    Al8    O156      1.75316      .   S
    Al11   O159      1.75316      .   S
    Al10   O158      1.75316      .   S
    Al9    O157      1.75316      .   S
    P59    O122      1.54390      .   S
    P58    O123      1.54390  1_545   S
    P57    O120      1.54390      .   S
    P56    O121      1.54390  1_545   S
    O110   Al22      1.75401      .   S
    O109   Al21      1.75401      .   S
    O111   Al23      1.75401      .   S
    O108   Al20      1.75300      .   S
    O169   P71       1.54505  1_455   S
    O168   P70       1.54505  1_455   S
    O171   P69       1.54506      .   S
    O170   P68       1.54506      .   S
    O123   Al14      1.75742  1_565   S
    O122   Al15      1.75730      .   S
    O121   Al12      1.75742  1_565   S
    O120   Al13      1.75730      .   S
    O159   P67       1.54060      .   S
    O158   P66       1.54062      .   S
    O157   P65       1.54060      .   S
    O156   P64       1.54062      .   S
    P71    O181      1.54734  1_655   S
    P71    O163      1.54081      .   S
    P71    O155      1.53582      .   S
    P70    O180      1.54734  1_655   S
    P70    O162      1.54079      .   S
    P70    O154      1.53580      .   S
    P69    O183      1.54740      .   S
    P69    O161      1.54081      .   S
    P69    O153      1.53579      .   S
    P68    O182      1.54740      .   S
    P68    O160      1.54079      .   S
    P68    O152      1.53582      .   S
    Al23   O182      1.76220  1_565   S
    Al23   O166      1.75495  1_565   S
    Al23   O147      1.75805      .   S
    Al22   O183      1.76202      .   S
    Al22   O167      1.75495      .   S
    Al22   O146      1.75805      .   S
    Al21   O180      1.76220  1_565   S
    Al21   O164      1.75497  1_565   S
    Al21   O145      1.75805      .   S
    Al20   O181      1.76201      .   S
    Al20   O165      1.75497      .   S
    Al20   O144      1.75804      .   S
    O160   Al12      1.76027      .   S
    O161   Al13      1.76025      .   S
    O162   Al14      1.76027      .   S
    O163   Al15      1.76025      .   S
    O174   P66       1.54456      .   S
    O174   Al18      1.75891      .   S
    O173   P65       1.54457      .   S
    O173   Al17      1.75892      .   S
    O172   P64       1.54456      .   S
    O172   Al16      1.75892      .   S
    O175   P67       1.54457      .   S
    O175   Al19      1.75892      .   S
    Al15   O151      1.75419      .   S
    Al15   O286      1.75476      .   S
    Al14   O150      1.75418      .   S
    Al14   O287      1.75490  1_545   S
    Al13   O149      1.75419      .   S
    Al13   O284      1.75476      .   S
    Al12   O148      1.75419      .   S
    Al12   O285      1.75489  1_545   S
    P65    O145      1.54469      .   S
    P65    O179      1.53956  1_455   S
    P64    O144      1.54469      .   S
    P64    O178      1.53957  1_455   S
    P66    O146      1.54469      .   S
    P66    O176      1.53964      .   S
    P67    O147      1.54469      .   S
    P67    O177      1.53965      .   S
    O152   Al18      1.75777      .   S
    O153   Al19      1.75778      .   S
    O154   Al16      1.75766  1_655   S
    O155   Al17      1.75765  1_655   S
    O167   P63       1.54751      .   S
    O166   P62       1.54752      .   S
    O165   P61       1.54751      .   S
    O164   P60       1.54751      .   S
    O148   P60       1.53683      .   S
    O149   P61       1.53684      .   S
    O150   P62       1.53684      .   S
    O151   P63       1.53684      .   S
    O187   Al19      1.75412      .   S
    O187   P63       1.53922      .   S
    O186   Al18      1.75412      .   S
    O186   P62       1.53922      .   S
    O185   Al17      1.75412      .   S
    O185   P61       1.53922      .   S
    O184   Al16      1.75412      .   S
    O184   P60       1.53923      .   S
    Al19   O275      1.75453      .   S
    Al16   O272      1.75453      .   S
    Al17   O273      1.75453      .   S
    Al18   O274      1.75453      .   S
    P60    O188      1.54231      .   S
    P61    O189      1.54231      .   S
    P62    O190      1.54231      .   S
    P63    O191      1.54231      .   S
    O179   Al43      1.75410      .   S
    O178   Al42      1.75410      .   S
    O177   Al41      1.75409      .   S
    O176   Al40      1.75409      .   S
    O287   P87       1.54231      .   S
    O286   P86       1.54231      .   S
    O285   P85       1.54231      .   S
    O284   P84       1.54231      .   S
    O191   Al38      1.75467      .   S
    O190   Al39      1.75479  1_545   S
    O189   Al36      1.75468      .   S
    O188   Al37      1.75479  1_545   S
    O274   P88       1.53955      .   S
    O273   P91       1.53948  1_455   S
    O272   P90       1.53948  1_455   S
    O275   P89       1.53955      .   S
    P86    O282      1.53912      .   S
    P86    O246      1.53684      .   S
    P86    O262      1.54720      .   S
    P85    O281      1.53912      .   S
    P85    O245      1.53684      .   S
    P85    O261      1.54720      .   S
    P84    O280      1.53912      .   S
    P84    O244      1.53684      .   S
    P84    O260      1.54741      .   S
    P87    O283      1.53912      .   S
    P87    O247      1.53684      .   S
    P87    O263      1.54741      .   S
    Al43   O283      1.75412      .   S
    Al43   O249      1.75785  1_655   S
    Al43   O271      1.75882      .   S
    Al42   O282      1.75412      .   S
    Al42   O248      1.75788  1_655   S
    Al42   O270      1.75881      .   S
    Al41   O281      1.75412      .   S
    Al41   O251      1.75798      .   S
    Al41   O269      1.75882      .   S
    Al40   O280      1.75412      .   S
    Al40   O250      1.75797      .   S
    Al40   O268      1.75882      .   S
    O246   Al38      1.75418      .   S
    O245   Al37      1.75419      .   S
    O244   Al36      1.75418      .   S
    O247   Al39      1.75420      .   S
    O242   P90       1.54463      .   S
    O242   Al46      1.75805      .   S
    O240   P88       1.54461      .   S
    O240   Al44      1.75805      .   S
    O243   P91       1.54461      .   S
    O243   Al47      1.75805      .   S
    O241   P89       1.54463      .   S
    O241   Al45      1.75803      .   S
    O262   Al47      1.75517      .   S
    O261   Al44      1.75515  1_565   S
    O260   Al45      1.75496      .   S
    O263   Al46      1.75494  1_565   S
    O251   P95       1.53579      .   S
    O250   P94       1.53582      .   S
    O249   P93       1.53582      .   S
    O248   P92       1.53580      .   S
    P88    O268      1.54440      .   S
    P88    O252      1.54075      .   S
    P89    O269      1.54440      .   S
    P89    O253      1.54073      .   S
    P90    O270      1.54438      .   S
    P90    O254      1.54075      .   S
    P91    O271      1.54439      .   S
    P91    O255      1.54075      .   S
    Al36   O256      1.76022      .   S
    Al36   O217      1.75744      .   S
    Al37   O257      1.76021      .   S
    Al37   O216      1.75756  1_565   S
    Al38   O258      1.76022      .   S
    Al38   O219      1.75744      .   S
    Al39   O259      1.76021      .   S
    Al39   O218      1.75756  1_565   S
    O259   P95       1.54081      .   S
    O256   P92       1.54079      .   S
    O257   P93       1.54081      .   S
    O258   P94       1.54079      .   S
    O279   Al46      1.76218  1_565   S
    O279   P93       1.54730  1_655   S
    O278   Al47      1.76199      .   S
    O278   P92       1.54731  1_655   S
    O277   Al44      1.76217  1_565   S
    O277   P95       1.54737      .   S
    O276   Al45      1.76200      .   S
    O276   P94       1.54735      .   S
    Al44   O204      1.75315      .   S
    Al45   O205      1.75315      .   S
    Al46   O206      1.75315      .   S
    Al47   O207      1.75315      .   S
    P94    O264      1.54396      .   S
    P95    O265      1.54396      .   S
    P93    O267      1.54396  1_455   S
    P92    O266      1.54396  1_455   S
    O255   Al35      1.75315      .   S
    O252   Al32      1.75315      .   S
    O253   Al33      1.75316      .   S
    O254   Al34      1.75315      .   S
    O216   P81       1.54390  1_545   S
    O217   P80       1.54390      .   S
    O218   P83       1.54390  1_545   S
    O219   P82       1.54390      .   S
    O264   Al26      1.75746      .   S
    O265   Al27      1.75746      .   S
    O266   Al24      1.75739  1_655   S
    O267   Al25      1.75739  1_655   S
    O206   P78       1.54066      .   S
    O204   P76       1.54066      .   S
    O205   P77       1.54066      .   S
    O207   P79       1.54066      .   S
    P81    O228      1.54749  1_565   S
    P81    O209      1.54078      .   S
    P81    O201      1.53579      .   S
    P80    O229      1.54732      .   S
    P80    O208      1.54078      .   S
    P80    O200      1.53492      .   S
    P82    O231      1.54732      .   S
    P82    O210      1.54077      .   S
    P82    O202      1.53579      .   S
    P83    O230      1.54748  1_565   S
    P83    O211      1.54077      .   S
    P83    O203      1.53492      .   S
    Al35   O229      1.76195  1_655   S
    Al35   O213      1.75480  1_655   S
    Al35   O195      1.75805      .   S
    Al34   O228      1.76195  1_655   S
    Al34   O212      1.75479  1_655   S
    Al34   O194      1.75805      .   S
    Al33   O231      1.76201      .   S
    Al33   O215      1.75485      .   S
    Al33   O193      1.75805      .   S
    Al32   O230      1.76201      .   S
    Al32   O214      1.75485      .   S
    Al32   O192      1.75805      .   S
    O208   Al24      1.75653      .   S
    O209   Al25      1.75653      .   S
    O210   Al26      1.75655      .   S
    O211   Al27      1.75653      .   S
    O223   P79       1.54460      .   S
    O223   Al31      1.75888      .   S
    O220   P76       1.54458      .   S
    O220   Al28      1.75890      .   S
    O222   P78       1.54458      .   S
    O222   Al30      1.75890      .   S
    O221   P77       1.54460      .   S
    O221   Al29      1.75888      .   S
    P79    O195      1.54462      .   S
    P79    O226      1.53967      .   S
    P78    O194      1.54464      .   S
    P78    O227      1.53980  1_545   S
    P77    O193      1.54462      .   S
    P77    O224      1.53968      .   S
    P76    O192      1.54464      .   S
    P76    O225      1.53979  1_545   S
    Al24   O196      1.75419      .   S
    Al24   O142      1.75448  1_455   S
    Al25   O197      1.75419      .   S
    Al25   O143      1.75448  1_455   S
    Al26   O198      1.75420      .   S
    Al26   O140      1.75455      .   S
    Al27   O199      1.75419      .   S
    Al27   O141      1.75456      .   S
    O203   Al30      1.75861  1_565   S
    O200   Al29      1.75848      .   S
    O201   Al28      1.75781  1_565   S
    O202   Al31      1.75769      .   S
    O213   P73       1.54758      .   S
    O215   P75       1.54760      .   S
    O214   P74       1.54761      .   S
    O212   P72       1.54759      .   S
    O197   P73       1.53681      .   S
    O196   P72       1.53679      .   S
    O198   P74       1.53679      .   S
    O199   P75       1.53681      .   S
    O235   Al31      1.75405      .   S
    O235   P75       1.53908      .   S
    O232   Al28      1.75403      .   S
    O232   P72       1.53910      .   S
    O233   Al29      1.75403      .   S
    O233   P73       1.53909      .   S
    O234   Al30      1.75403      .   S
    O234   P74       1.53909      .   S
