# CIF file generated by openbabel 2.4.90, see http://openbabel.sf.net
data_I
_chemical_name_common ''
_cell_length_a 27.92
_cell_length_b 14.179
_cell_length_c 14.88
_cell_angle_alpha 65.279
_cell_angle_beta 62.007
_cell_angle_gamma 60.493
_space_group_name_H-M_alt 'P 1'
_space_group_name_Hall 'P 1'
loop_
    _symmetry_equiv_pos_as_xyz
    x,y,z
loop_
    _atom_site_label
    _atom_site_type_symbol
    _atom_site_fract_x
    _atom_site_fract_y
    _atom_site_fract_z
    _atom_site_occupancy
    Lv0     Lv   0.59196   0.36051   0.37816   1.000
    Lv1     Lv   0.96133   0.13945   0.12181   1.000
    Lv2     Lv   0.25004   0.99997   0.99996   1.000
    Lv3     Lv   0.09196   0.36051   0.37817   1.000
    Lv4     Lv   0.03775   0.86051   0.87812   1.000
    Lv5     Lv   0.46132   0.13945   0.12181   1.000
    Lv6     Lv   0.40811   0.63944   0.62169   1.000
    Lv7     Lv   0.75004   0.99998   0.99993   1.000
    Lv8     Lv   0.90811   0.63944   0.62178   1.000
    Lv9     Lv   0.25004   0.49999   0.49994   1.000
    Lv10    Lv   0.53876   0.86051   0.87812   1.000
    Lv11    Lv   0.75004   0.49999   0.49996   1.000
