# CIF file generated by openbabel 2.4.90, see http://openbabel.sf.net
data_I
_chemical_name_common ''
_cell_length_a 27.92
_cell_length_b 14.179
_cell_length_c 14.88
_cell_angle_alpha 65.279
_cell_angle_beta 62.007
_cell_angle_gamma 60.493
_space_group_name_H-M_alt 'P 1'
_space_group_name_Hall 'P 1'
loop_
    _symmetry_equiv_pos_as_xyz
    x,y,z
loop_
    _atom_site_label
    _atom_site_type_symbol
    _atom_site_fract_x
    _atom_site_fract_y
    _atom_site_fract_z
    _atom_site_occupancy
    Ca0     Ca   0.76922   0.97617   0.36924   1.000
    Ca1     Ca   0.44199   0.52381   0.13068   1.000
    Ca2     Ca   0.94200   0.52381   0.13068   1.000
    Ca3     Ca   0.23086   0.02379   0.63069   1.000
    Ca4     Ca   0.73087   0.02379   0.63069   1.000
    Ca5     Ca   0.05809   0.47616   0.86924   1.000
    Ca6     Ca   0.55809   0.47616   0.86924   1.000
    Ca7     Ca   0.39300   0.74999   0.24989   1.000
    Ca8     Ca   0.89301   0.75000   0.24989   1.000
    Ca9     Ca   0.10708   0.24997   0.75004   1.000
    Ca10    Ca   0.60708   0.24997   0.75004   1.000
    H11     H    0.35949   0.19809   0.24368   1.000
    H12     H    0.85949   0.19808   0.24368   1.000
    H13     H    0.41065   0.33144   0.14995   1.000
    H14     H    0.91066   0.33144   0.14996   1.000
    H15     H    0.06307   0.08091   0.99762   1.000
    H16     H    0.56307   0.08091   0.99762   1.000
    H17     H    0.01137   0.94629   0.09706   1.000
    H18     H    0.51137   0.94629   0.09706   1.000
    H19     H    0.34101   0.86152   0.04042   1.000
    H20     H    0.84101   0.86153   0.04042   1.000
    H21     H    0.16740   0.10377   0.13225   1.000
    H22     H    0.66740   0.10377   0.13225   1.000
    H23     H    0.08046   0.30187   0.25627   1.000
    H24     H    0.58046   0.30187   0.25627   1.000
    H25     H    0.15139   0.16851   0.35007   1.000
    H26     H    0.65139   0.16851   0.35007   1.000
    H27     H    0.10224   0.41903   0.50244   1.000
    H28     H    0.60224   0.41903   0.50244   1.000
    H29     H    0.03304   0.55367   0.40286   1.000
    H30     H    0.53304   0.55367   0.40286   1.000
    H31     H    0.29204   0.63832   0.45958   1.000
    Ca32    Ca   0.26922   0.97617   0.36924   1.000
    H33     H    0.79205   0.63832   0.45959   1.000
    H34     H    0.28541   0.39640   0.36757   1.000
    H35     H    0.78542   0.39640   0.36758   1.000
    H36     H    0.14059   0.80187   0.75620   1.000
    H37     H    0.64060   0.80187   0.75620   1.000
    H38     H    0.08943   0.66853   0.84997   1.000
    H39     H    0.58943   0.66852   0.84998   1.000
    H40     H    0.43702   0.91906   0.00232   1.000
    H41     H    0.93702   0.91905   0.00233   1.000
    H42     H    0.48873   0.05366   0.90288   1.000
    H43     H    0.98873   0.05366   0.90289   1.000
    H44     H    0.15907   0.13843   0.95951   1.000
    H45     H    0.65907   0.13843   0.95951   1.000
    H46     H    0.33268   0.89618   0.86768   1.000
    H47     H    0.83269   0.89619   0.86768   1.000
    H48     H    0.41960   0.69807   0.74370   1.000
    H49     H    0.91960   0.69807   0.74370   1.000
    H50     H    0.34868   0.83144   0.64900   1.000
    H51     H    0.84868   0.83144   0.64990   1.000
    H52     H    0.39783   0.58092   0.49750   1.000
    H53     H    0.89784   0.58092   0.49750   1.000
    H54     H    0.46704   0.44628   0.59710   1.000
    H55     H    0.96704   0.44628   0.59710   1.000
    H56     H    0.20803   0.36166   0.54030   1.000
    H57     H    0.70804   0.36166   0.54034   1.000
    H58     H    0.21466   0.60358   0.63230   1.000
    H59     H    0.71467   0.60358   0.63235   1.000
    C60     C    0.39887   0.98806   0.22915   1.000
    C61     C    0.89887   0.98806   0.22915   1.000
    C62     C    0.43220   0.06483   0.17523   1.000
    C63     C    0.93220   0.06483   0.17524   1.000
    C64     C    0.40428   0.17322   0.19048   1.000
    C65     C    0.90428   0.17322   0.19049   1.000
    C66     C    0.43313   0.24757   0.13752   1.000
    C67     C    0.93313   0.24756   0.13752   1.000
    C68     C    0.49034   0.21505   0.06679   1.000
    C69     C    0.99034   0.21504   0.06679   1.000
    C70     C    0.01955   0.29699   0.00000   1.000
    C71     C    0.51955   0.29699   0.00000   1.000
    C72     C    0.01873   0.10601   0.05244   1.000
    C73     C    0.51873   0.10601   0.05244   1.000
    C74     C    0.99000   0.03107   0.10734   1.000
    C75     C    0.49000   0.03107   0.10730   1.000
    C76     C    0.25878   0.96333   0.19922   1.000
    C77     C    0.75878   0.96333   0.19922   1.000
    C78     C    0.25448   0.98072   0.09664   1.000
    C79     C    0.75448   0.98072   0.09664   1.000
    C80     C    0.30131   0.92185   0.02230   1.000
    C81     C    0.80131   0.92186   0.02200   1.000
    C82     C    0.20326   0.05889   0.07358   1.000
    C83     C    0.70326   0.05889   0.07357   1.000
    C84     C    0.00754   0.51193   0.27074   1.000
    C85     C    0.50754   0.51193   0.27074   1.000
    C86     C    0.05227   0.43515   0.32469   1.000
    C87     C    0.55227   0.43515   0.32469   1.000
    C88     C    0.08618   0.32675   0.30948   1.000
    C89     C    0.58618   0.32675   0.30940   1.000
    C90     C    0.12569   0.25239   0.36250   1.000
    C91     C    0.62569   0.25239   0.36250   1.000
    C92     C    0.13123   0.28489   0.43320   1.000
    C93     C    0.63123   0.28489   0.43320   1.000
    C94     C    0.17115   0.20295   0.49383   1.000
    C95     C    0.67116   0.20295   0.49383   1.000
    C96     C    0.09791   0.39394   0.44759   1.000
    C97     C    0.59791   0.39394   0.44759   1.000
    C98     C    0.05919   0.46890   0.39262   1.000
    C99     C    0.55919   0.46891   0.39262   1.000
    O100    O    0.79009   0.88749   0.53490   1.000
    O101    O    0.13733   0.39302   0.72022   1.000
    O102    O    0.63733   0.39302   0.72022   1.000
    O103    O    0.14187   0.52063   0.76352   1.000
    C104    C    0.34010   0.53670   0.30067   1.000
    C105    C    0.84010   0.53670   0.30060   1.000
    C106    C    0.29320   0.51928   0.40320   1.000
    C107    C    0.79320   0.51928   0.40328   1.000
    C108    C    0.27343   0.57804   0.47767   1.000
    C109    C    0.77343   0.57804   0.47768   1.000
    C110    C    0.26949   0.44120   0.42630   1.000
    C111    C    0.76950   0.44120   0.42630   1.000
    C112    C    0.10123   0.01188   0.77079   1.000
    C113    C    0.60123   0.01187   0.77079   1.000
    C114    C    0.06789   0.93512   0.82470   1.000
    C115    C    0.56789   0.93512   0.82470   1.000
    C116    C    0.09581   0.82674   0.80945   1.000
    C117    C    0.59581   0.82673   0.80945   1.000
    C118    C    0.06695   0.75240   0.86241   1.000
    C119    C    0.56696   0.75239   0.86242   1.000
    C120    C    0.00975   0.78492   0.93310   1.000
    C121    C    0.50975   0.78492   0.93315   1.000
    C122    C    0.48054   0.70297   0.99371   1.000
    C123    C    0.98054   0.70297   0.99371   1.000
    C124    C    0.48136   0.89395   0.94750   1.000
    C125    C    0.98136   0.89395   0.94750   1.000
    C126    C    0.51010   0.96889   0.89261   1.000
    C127    C    0.00000   0.96889   0.89261   1.000
    C128    C    0.24131   0.03663   0.80071   1.000
    C129    C    0.74131   0.03664   0.80070   1.000
    C130    C    0.24560   0.01923   0.90329   1.000
    C131    C    0.74560   0.01924   0.90329   1.000
    C132    C    0.19877   0.07810   0.97760   1.000
    C133    C    0.69878   0.07810   0.97763   1.000
    C134    C    0.29682   0.94106   0.92636   1.000
    C135    C    0.79683   0.94107   0.92635   1.000
    C136    C    0.49254   0.48803   0.72921   1.000
    C137    C    0.99254   0.48803   0.72921   1.000
    C138    C    0.44780   0.56480   0.67527   1.000
    C139    C    0.94780   0.56480   0.67527   1.000
    C140    C    0.41389   0.67320   0.69048   1.000
    C141    C    0.91389   0.67320   0.69048   1.000
    C142    C    0.37437   0.74756   0.63746   1.000
    C143    C    0.87438   0.74756   0.63746   1.000
    C144    C    0.36884   0.71506   0.56669   1.000
    C145    C    0.86884   0.71506   0.56669   1.000
    C146    C    0.32892   0.79700   0.50610   1.000
    C147    C    0.82893   0.79700   0.50610   1.000
    C148    C    0.40216   0.60601   0.55236   1.000
    C149    C    0.90217   0.60601   0.55236   1.000
    C150    C    0.44088   0.53104   0.60734   1.000
    C151    C    0.94089   0.53104   0.60734   1.000
    C152    C    0.15998   0.46327   0.69925   1.000
    C153    C    0.65999   0.46327   0.69925   1.000
    C154    C    0.20688   0.48070   0.59664   1.000
    C155    C    0.70688   0.48070   0.59665   1.000
    C156    C    0.22664   0.42194   0.52224   1.000
    C157    C    0.72665   0.42194   0.52225   1.000
    C158    C    0.23058   0.55878   0.57362   1.000
    C159    C    0.73059   0.55878   0.57360   1.000
    O160    O    0.34643   0.02637   0.28970   1.000
    O161    O    0.84643   0.02637   0.28978   1.000
    O162    O    0.42361   0.89218   0.21075   1.000
    O163    O    0.92361   0.89218   0.21075   1.000
    O164    O    0.06499   0.27987   0.92450   1.000
    O165    O    0.56499   0.27987   0.92450   1.000
    O166    O    0.49868   0.38754   0.03494   1.000
    O167    O    0.99868   0.38754   0.03494   1.000
    O168    O    0.30605   0.89291   0.22026   1.000
    O169    O    0.80606   0.89291   0.22026   1.000
    O170    O    0.21610   0.02088   0.26341   1.000
    O171    O    0.71610   0.02088   0.26341   1.000
    O172    O    0.00449   0.47359   0.21028   1.000
    O173    O    0.50449   0.47359   0.21028   1.000
    O174    O    0.47521   0.60791   0.28890   1.000
    O175    O    0.97521   0.60791   0.28897   1.000
    O176    O    0.16713   0.22005   0.57558   1.000
    O177    O    0.66713   0.22005   0.57558   1.000
    O178    O    0.20998   0.11247   0.46504   1.000
    O179    O    0.70998   0.11247   0.46504   1.000
    O180    O    0.36275   0.60696   0.27971   1.000
    O181    O    0.86276   0.60696   0.27971   1.000
    O182    O    0.35821   0.47934   0.23641   1.000
    O183    O    0.85821   0.47934   0.23641   1.000
    O184    O    0.15366   0.97357   0.71010   1.000
    O185    O    0.65367   0.97357   0.71016   1.000
    O186    O    0.07649   0.10775   0.78919   1.000
    O187    O    0.57650   0.10775   0.78919   1.000
    O188    O    0.43509   0.72009   0.07543   1.000
    O189    O    0.93509   0.72009   0.07543   1.000
    O190    O    0.00141   0.61242   0.96499   1.000
    O191    O    0.50141   0.61242   0.96499   1.000
    O192    O    0.19403   0.10705   0.77966   1.000
    O193    O    0.69403   0.10705   0.77966   1.000
    O194    O    0.28398   0.97908   0.73652   1.000
    O195    O    0.78399   0.97909   0.73652   1.000
    O196    O    0.49560   0.52639   0.78963   1.000
    O197    O    0.99560   0.52639   0.78964   1.000
    O198    O    0.02485   0.39204   0.71100   1.000
    O199    O    0.52485   0.39204   0.71100   1.000
    O200    O    0.33296   0.77990   0.42435   1.000
    O201    O    0.83296   0.77990   0.42435   1.000
    O202    O    0.29009   0.88748   0.53400   1.000
    O203    O    0.64188   0.52062   0.76352   1.000
loop_
    _geom_bond_atom_site_label_1
    _geom_bond_atom_site_label_2
    _geom_bond_distance
    _geom_bond_site_symmetry_2
    _ccdc_geom_bond_type
    C71    O166      1.33985      .   S
    C71    C68       1.48654      .   S
    C71    O165      1.23186  1_554   S
    C70    O167      1.33988  1_455   S
    C70    C69       1.48646  1_455   S
    C70    O164      1.23187  1_554   S
    H40    C124      1.08866  1_554   S
    H41    C125      1.08871  1_554   S
    C81    H20       1.09116      .   S
    C81    C79       1.40600      .   S
    C81    C135      1.38745  1_554   S
    C80    H19       1.08938      .   S
    C80    C78       1.40333      .   S
    C80    C134      1.39172  1_554   S
    O166   Ca1       2.33254      .   S
    O167   Ca2       2.33256      .   S
    C73    C68       1.40506      .   S
    C73    C75       1.39239      .   S
    C73    H16       1.08868  1_554   S
    C72    C69       1.40505  1_455   S
    C72    C74       1.39237  1_455   S
    C72    H15       1.08866  1_554   S
    C69    C67       1.40497      .   S
    C68    C66       1.40499      .   S
    C83    C79       1.40461  1_545   S
    C83    H22       1.08915      .   S
    C83    C133      1.39170  1_554   S
    C82    C78       1.40453  1_545   S
    C82    H21       1.08907      .   S
    C82    C132      1.39229  1_554   S
    O188   C122      1.28170  1_554   S
    O189   C123      1.28169  1_554   S
    C78    C76       1.49434      .   S
    C79    C77       1.49432      .   S
    H17    C74       1.08899  1_465   S
    H18    C75       1.08880  1_565   S
    C75    C62       1.40269      .   S
    C74    C63       1.40245      .   S
    Ca2    O172      2.22817  1_655   S
    Ca1    O173      2.22824      .   S
    C67    H14       1.08734      .   S
    C67    C65       1.38803      .   S
    C66    H13       1.08730      .   S
    C66    C64       1.38803      .   S
    C62    C64       1.40232      .   S
    C62    C60       1.50374  1_545   S
    C63    C65       1.40231      .   S
    C63    C61       1.50376  1_545   S
    C64    H11       1.08839      .   S
    C65    H12       1.08833      .   S
    C76    O168      1.29050      .   S
    C76    O170      1.27421  1_565   S
    C77    O169      1.29048      .   S
    C77    O171      1.27423  1_565   S
    O172   C84       1.28010      .   S
    O173   C85       1.28013      .   S
    O163   C61       1.26849      .   S
    O163   Ca8       2.31987      .   S
    O162   C60       1.26848      .   S
    O162   Ca7       2.31988      .   S
    C61    O161      1.28021  1_565   S
    C60    O160      1.27980  1_565   S
    O183   C105      1.27303      .   S
    O182   C104      1.27390      .   S
    Ca7    O174      2.31980      .   S
    Ca8    O175      2.32017      .   S
    H24    C89       1.08719      .   S
    H23    C88       1.08830      .   S
    C85    O174      1.26819      .   S
    C85    C87       1.50340      .   S
    C84    O175      1.26851  1_455   S
    C84    C86       1.50340      .   S
    O181   C105      1.29088      .   S
    O180   C104      1.29054      .   S
    O160   Ca32      2.22847  1_545   S
    O161   Ca0       2.22855  1_545   S
    C105   C107      1.49497      .   S
    C104   C106      1.49376      .   S
    C89    C87       1.40271      .   S
    C89    C91       1.38878      .   S
    C88    C86       1.40234      .   S
    C88    C90       1.38804      .   S
    C87    C99       1.40254      .   S
    C86    C98       1.40253      .   S
    H25    C90       1.08732      .   S
    H26    C91       1.08732      .   S
    C90    C92       1.40414      .   S
    C91    C93       1.40415      .   S
    H34    C110      1.08919      .   S
    H35    C111      1.08907      .   S
    Ca32   O178      2.33340  1_565   S
    Ca0    O179      2.33339  1_565   S
    C99    H30       1.08859      .   S
    C99    C97       1.39235      .   S
    C98    H29       1.08860      .   S
    C98    C96       1.39235      .   S
    C106   C110      1.40416      .   S
    C106   C108      1.40425      .   S
    C107   C111      1.40449      .   S
    C107   C109      1.40336      .   S
    O200   C146      1.28150      .   S
    O201   C147      1.28150      .   S
    C111   C157      1.39161      .   S
    C110   C156      1.39153      .   S
    C92    C96       1.40535      .   S
    C92    C94       1.48246      .   S
    C93    C97       1.40537      .   S
    C93    C95       1.48246      .   S
    C97    H28       1.08874      .   S
    C96    H27       1.08872      .   S
    H31    C108      1.08942      .   S
    H33    C109      1.08942      .   S
    O179   C95       1.28785      .   S
    O178   C94       1.28784      .   S
    C108   C158      1.39161      .   S
    C109   C159      1.39136      .   S
    C95    O177      1.28162      .   S
    C94    O176      1.28161      .   S
    H52    C148      1.08877      .   S
    H53    C149      1.08876      .   S
    C147   O100      1.28791      .   S
    C147   C145      1.48198      .   S
    C146   O202      1.28323      .   S
    C146   C144      1.48196      .   S
    C156   H56       1.08955      .   S
    C156   C154      1.40335      .   S
    C157   H57       1.08942      .   S
    C157   C155      1.40335      .   S
    O202   Ca3       2.34176  1_565   S
    O100   Ca4       2.33339  1_565   S
    C148   C144      1.40509      .   S
    C148   C150      1.39239      .   S
    C149   C145      1.40509      .   S
    C149   C151      1.39239      .   S
    C144   C142      1.40502      .   S
    C145   C143      1.40500      .   S
    C159   C155      1.40439      .   S
    C159   H59       1.08945      .   S
    C158   C154      1.40452      .   S
    C158   H58       1.08857      .   S
    C154   C152      1.49437      .   S
    C155   C153      1.49429      .   S
    H55    C151      1.08859      .   S
    H54    C150      1.08860      .   S
    C151   C139      1.40248      .   S
    C150   C138      1.40250      .   S
    Ca3    O184      2.22857  1_545   S
    Ca4    O185      2.22852  1_545   S
    C142   H50       1.08317      .   S
    C142   C140      1.38802      .   S
    C143   H51       1.08735      .   S
    C143   C141      1.38802      .   S
    C138   C140      1.40232      .   S
    C138   C136      1.50342      .   S
    C139   C141      1.40231      .   S
    C139   C137      1.50342      .   S
    C140   H48       1.08840      .   S
    C141   H49       1.08838      .   S
    C153   O102      1.29049      .   S
    C153   O203      1.27397      .   S
    C152   O101      1.29050      .   S
    C152   O103      1.27398      .   S
    O184   C112      1.28046  1_565   S
    O185   C113      1.28017  1_565   S
    O199   C136      1.26855      .   S
    O199   Ca10      2.32026      .   S
    O198   C137      1.26853  1_455   S
    O198   Ca9       2.32026      .   S
    C137   O197      1.28019      .   S
    C136   O196      1.28008      .   S
    O194   C128      1.27421  1_565   S
    O195   C129      1.27413  1_565   S
    Ca10   O187      2.31984      .   S
    Ca9    O186      2.31983      .   S
    H36    C116      1.08858      .   S
    H37    C117      1.08862      .   S
    C112   O186      1.26843      .   S
    C112   C114      1.50374  1_545   S
    C113   O187      1.26845      .   S
    C113   C115      1.50376  1_545   S
    O192   C128      1.29052      .   S
    O193   C129      1.29048      .   S
    O196   Ca6       2.22820      .   S
    O197   Ca5       2.22802  1_655   S
    C129   C131      1.49444      .   S
    C128   C130      1.49429      .   S
    C117   C115      1.40229      .   S
    C117   C119      1.38803      .   S
    C116   C114      1.40228      .   S
    C116   C118      1.38803      .   S
    C115   C126      1.40258      .   S
    C114   C127      1.59871      .   S
    H38    C118      1.08732      .   S
    H39    C119      1.08735      .   S
    C118   C120      1.40475      .   S
    C119   C121      1.40496      .   S
    H47    C135      1.08906      .   S
    H46    C134      1.08916      .   S
    Ca6    O191      2.33258      .   S
    Ca5    O190      2.33260      .   S
    C127   H43       1.14158  1_465   S
    C127   C125      1.21935  1_455   S
    C126   H42       1.08893  1_565   S
    C126   C124      1.39238      .   S
    C131   C135      1.40453  1_545   S
    C131   C133      1.40332      .   S
    C130   C134      1.40458  1_545   S
    C130   C132      1.40306      .   S
    C120   C125      1.40529  1_455   S
    C120   C123      1.48156  1_455   S
    C121   C124      1.40504      .   S
    C121   C122      1.48162      .   S
    H45    C133      1.08938      .   S
    H44    C132      1.08921      .   S
    O191   C122      1.28793      .   S
    O190   C123      1.28794  1_455   S
    O164   Ca5       2.48307      .   S
    O164   Ca9       2.42196      .   S
    O165   Ca6       2.48307      .   S
    O165   Ca10      2.42195      .   S
    O166   Ca6       2.45606  1_554   S
    O167   Ca5       2.45599  1_654   S
    O168   Ca32      2.49368      .   S
    O168   Ca7       2.36769      .   S
    O169   Ca0       2.49366      .   S
    O169   Ca8       2.36767      .   S
    O170   Ca32      2.34788  1_545   S
    O171   Ca0       2.34784  1_545   S
    O176   Ca3       2.48322      .   S
    O176   Ca9       2.42171      .   S
    O177   Ca4       2.48322      .   S
    O177   Ca10      2.42171      .   S
    O178   Ca3       2.45582      .   S
    O179   Ca4       2.45585      .   S
    O180   Ca1       2.49281      .   S
    O180   Ca7       2.36776      .   S
    O181   Ca2       2.49280      .   S
    O181   Ca8       2.36777      .   S
    O182   Ca1       2.34798      .   S
    O183   Ca2       2.34798      .   S
    O188   Ca1       2.48304      .   S
    O188   Ca7       2.42195      .   S
    O189   Ca2       2.48302      .   S
    O189   Ca8       2.42196      .   S
    O190   Ca2       2.45595  1_456   S
    O191   Ca1       2.45603  1_556   S
    O192   Ca3       2.49358      .   S
    O192   Ca9       2.36769      .   S
    O193   Ca4       2.49357      .   S
    O193   Ca10      2.36769      .   S
    O194   Ca3       2.34786  1_565   S
    O195   Ca4       2.34791  1_565   S
    O200   Ca32      2.48325      .   S
    O200   Ca7       2.42166      .   S
    O201   Ca0       2.48325      .   S
    O201   Ca8       2.42166      .   S
    O202   Ca32      2.44377      .   S
    O100   Ca0       2.45584      .   S
    O101   Ca5       2.49265      .   S
    O101   Ca9       2.36786      .   S
    O102   Ca6       2.49265      .   S
    O102   Ca10      2.36784      .   S
    O103   Ca5       2.34800      .   S
    O203   Ca6       2.34800      .   S
