# CIF file generated by openbabel 2.4.90, see http://openbabel.sf.net
data_I
_chemical_name_common ''
_cell_length_a 27.92
_cell_length_b 14.179
_cell_length_c 14.88
_cell_angle_alpha 65.279
_cell_angle_beta 62.007
_cell_angle_gamma 60.493
_space_group_name_H-M_alt 'P 1'
_space_group_name_Hall 'P 1'
loop_
    _symmetry_equiv_pos_as_xyz
    x,y,z
loop_
    _atom_site_label
    _atom_site_type_symbol
    _atom_site_fract_x
    _atom_site_fract_y
    _atom_site_fract_z
    _atom_site_occupancy
    C0      C    0.39887   0.98806   0.22915   1.000
    C1      C    0.89887   0.98806   0.22915   1.000
    C2      C    0.01955   0.29699   0.00000   1.000
    C3      C    0.51955   0.29699   0.00000   1.000
    C4      C    0.25878   0.96333   0.19922   1.000
    C5      C    0.75878   0.96333   0.19922   1.000
    C6      C    0.00754   0.51193   0.27074   1.000
    C7      C    0.50754   0.51193   0.27074   1.000
    C8      C    0.17115   0.20295   0.49383   1.000
    C9      C    0.67116   0.20295   0.49383   1.000
    O10     O    0.79009   0.88749   0.53490   1.000
    O11     O    0.13733   0.39302   0.72022   1.000
    O12     O    0.63733   0.39302   0.72022   1.000
    O13     O    0.14187   0.52063   0.76352   1.000
    C14     C    0.34010   0.53670   0.30067   1.000
    C15     C    0.84010   0.53670   0.30060   1.000
    C16     C    0.10123   0.01188   0.77079   1.000
    C17     C    0.60123   0.01187   0.77079   1.000
    C18     C    0.48054   0.70297   0.99371   1.000
    C19     C    0.98054   0.70297   0.99371   1.000
    C20     C    0.24131   0.03663   0.80071   1.000
    C21     C    0.74131   0.03664   0.80070   1.000
    C22     C    0.49254   0.48803   0.72921   1.000
    C23     C    0.99254   0.48803   0.72921   1.000
    C24     C    0.32892   0.79700   0.50610   1.000
    C25     C    0.82893   0.79700   0.50610   1.000
    C26     C    0.15998   0.46327   0.69925   1.000
    C27     C    0.65999   0.46327   0.69925   1.000
    O28     O    0.34643   0.02637   0.28970   1.000
    O29     O    0.84643   0.02637   0.28978   1.000
    O30     O    0.42361   0.89218   0.21075   1.000
    O31     O    0.92361   0.89218   0.21075   1.000
    O32     O    0.06499   0.27987   0.92450   1.000
    O33     O    0.56499   0.27987   0.92450   1.000
    O34     O    0.49868   0.38754   0.03494   1.000
    O35     O    0.99868   0.38754   0.03494   1.000
    O36     O    0.30605   0.89291   0.22026   1.000
    O37     O    0.80606   0.89291   0.22026   1.000
    O38     O    0.21610   0.02088   0.26341   1.000
    O39     O    0.71610   0.02088   0.26341   1.000
    O40     O    0.00449   0.47359   0.21028   1.000
    O41     O    0.50449   0.47359   0.21028   1.000
    O42     O    0.47521   0.60791   0.28890   1.000
    O43     O    0.97521   0.60791   0.28897   1.000
    O44     O    0.16713   0.22005   0.57558   1.000
    O45     O    0.66713   0.22005   0.57558   1.000
    O46     O    0.20998   0.11247   0.46504   1.000
    O47     O    0.70998   0.11247   0.46504   1.000
    O48     O    0.36275   0.60696   0.27971   1.000
    O49     O    0.86276   0.60696   0.27971   1.000
    O50     O    0.35821   0.47934   0.23641   1.000
    O51     O    0.85821   0.47934   0.23641   1.000
    O52     O    0.15366   0.97357   0.71010   1.000
    O53     O    0.65367   0.97357   0.71016   1.000
    O54     O    0.07649   0.10775   0.78919   1.000
    O55     O    0.57650   0.10775   0.78919   1.000
    O56     O    0.43509   0.72009   0.07543   1.000
    O57     O    0.93509   0.72009   0.07543   1.000
    O58     O    0.00141   0.61242   0.96499   1.000
    O59     O    0.50141   0.61242   0.96499   1.000
    O60     O    0.19403   0.10705   0.77966   1.000
    O61     O    0.69403   0.10705   0.77966   1.000
    O62     O    0.28398   0.97908   0.73652   1.000
    O63     O    0.78399   0.97909   0.73652   1.000
    O64     O    0.49560   0.52639   0.78963   1.000
    O65     O    0.99560   0.52639   0.78964   1.000
    O66     O    0.02485   0.39204   0.71100   1.000
    O67     O    0.52485   0.39204   0.71100   1.000
    O68     O    0.33296   0.77990   0.42435   1.000
    O69     O    0.83296   0.77990   0.42435   1.000
    O70     O    0.29009   0.88748   0.53400   1.000
    O71     O    0.64188   0.52062   0.76352   1.000
loop_
    _geom_bond_atom_site_label_1
    _geom_bond_atom_site_label_2
    _geom_bond_distance
    _geom_bond_site_symmetry_2
    _ccdc_geom_bond_type
    C3     O34       1.33985      .   S
    C3     O33       1.23186  1_554   S
    C2     O35       1.33988  1_455   S
    C2     O32       1.23187  1_554   S
    O56    C18       1.28170  1_554   S
    O57    C19       1.28169  1_554   S
    C4     O36       1.29050      .   S
    C4     O38       1.27421  1_565   S
    C5     O37       1.29048      .   S
    C5     O39       1.27423  1_565   S
    O40    C6        1.28010      .   S
    O41    C7        1.28013      .   S
    O31    C1        1.26849      .   S
    O30    C0        1.26848      .   S
    C1     O29       1.28021  1_565   S
    C0     O28       1.27980  1_565   S
    O51    C15       1.27303      .   S
    O50    C14       1.27390      .   S
    C7     O42       1.26819      .   S
    C6     O43       1.26851  1_455   S
    O49    C15       1.29088      .   S
    O48    C14       1.29054      .   S
    O68    C24       1.28150      .   S
    O69    C25       1.28150      .   S
    O47    C9        1.28785      .   S
    O46    C8        1.28784      .   S
    C9     O45       1.28162      .   S
    C8     O44       1.28161      .   S
    C25    O10       1.28791      .   S
    C24    O70       1.28323      .   S
    C27    O12       1.29049      .   S
    C27    O71       1.27397      .   S
    C26    O11       1.29050      .   S
    C26    O13       1.27398      .   S
    O52    C16       1.28046  1_565   S
    O53    C17       1.28017  1_565   S
    O67    C22       1.26855      .   S
    O66    C23       1.26853  1_455   S
    C23    O65       1.28019      .   S
    C22    O64       1.28008      .   S
    O62    C20       1.27421  1_565   S
    O63    C21       1.27413  1_565   S
    C16    O54       1.26843      .   S
    C17    O55       1.26845      .   S
    O60    C20       1.29052      .   S
    O61    C21       1.29048      .   S
    O59    C18       1.28793      .   S
    O58    C19       1.28794  1_455   S
