# CIF file generated by openbabel 2.4.90, see http://openbabel.sf.net
data_I
_chemical_name_common ''
_cell_length_a 27.92
_cell_length_b 14.179
_cell_length_c 14.88
_cell_angle_alpha 65.279
_cell_angle_beta 62.007
_cell_angle_gamma 60.493
_space_group_name_H-M_alt 'P 1'
_space_group_name_Hall 'P 1'
loop_
    _symmetry_equiv_pos_as_xyz
    x,y,z
loop_
    _atom_site_label
    _atom_site_type_symbol
    _atom_site_fract_x
    _atom_site_fract_y
    _atom_site_fract_z
    _atom_site_occupancy
    C0      C    0.39887   0.98806   0.22915   1.000
    C1      C    0.89887   0.98806   0.22915   1.000
    C2      C    0.01955   0.29699   0.00000   1.000
    C3      C    0.51955   0.29699   0.00000   1.000
    C4      C    0.25878   0.96333   0.19922   1.000
    C5      C    0.75878   0.96333   0.19922   1.000
    C6      C    0.00754   0.51193   0.27074   1.000
    C7      C    0.50754   0.51193   0.27074   1.000
    C8      C    0.17115   0.20295   0.49383   1.000
    C9      C    0.67116   0.20295   0.49383   1.000
    C10     C    0.34010   0.53670   0.30067   1.000
    C11     C    0.84010   0.53670   0.30060   1.000
    C12     C    0.10123   0.01188   0.77079   1.000
    C13     C    0.60123   0.01187   0.77079   1.000
    C14     C    0.48054   0.70297   0.99371   1.000
    C15     C    0.98054   0.70297   0.99371   1.000
    C16     C    0.24131   0.03663   0.80071   1.000
    C17     C    0.74131   0.03664   0.80070   1.000
    C18     C    0.49254   0.48803   0.72921   1.000
    C19     C    0.99254   0.48803   0.72921   1.000
    C20     C    0.32892   0.79700   0.50610   1.000
    C21     C    0.82893   0.79700   0.50610   1.000
    C22     C    0.15998   0.46327   0.69925   1.000
    C23     C    0.65999   0.46327   0.69925   1.000
