# CIF file generated by openbabel 2.4.90, see http://openbabel.sf.net
data_I
_chemical_name_common ''
_cell_length_a 27.92
_cell_length_b 14.179
_cell_length_c 14.88
_cell_angle_alpha 65.279
_cell_angle_beta 62.007
_cell_angle_gamma 60.493
_space_group_name_H-M_alt 'P 1'
_space_group_name_Hall 'P 1'
loop_
    _symmetry_equiv_pos_as_xyz
    x,y,z
loop_
    _atom_site_label
    _atom_site_type_symbol
    _atom_site_fract_x
    _atom_site_fract_y
    _atom_site_fract_z
    _atom_site_occupancy
    Zr0     Zr   0.26922   0.97617   0.36924   1.000
    Zr1     Zr   0.76922   0.97617   0.36924   1.000
    Zr2     Zr   0.44199   0.52381   0.13068   1.000
    Zr3     Zr   0.94200   0.52381   0.13068   1.000
    Zr4     Zr   0.23086   0.02379   0.63069   1.000
    Zr5     Zr   0.73087   0.02379   0.63069   1.000
    Zr6     Zr   0.05809   0.47616   0.86924   1.000
    Zr7     Zr   0.55809   0.47616   0.86924   1.000
    Zr8     Zr   0.39300   0.74999   0.24989   1.000
    Zr9     Zr   0.89301   0.75000   0.24989   1.000
    Zr10    Zr   0.10708   0.24997   0.75004   1.000
    Zr11    Zr   0.60708   0.24997   0.75004   1.000
    Zr12    Zr   0.39887   0.98806   0.22915   1.000
    Zr13    Zr   0.89887   0.98806   0.22915   1.000
    Zr14    Zr   0.01955   0.29699   0.00000   1.000
    Zr15    Zr   0.51955   0.29699   0.00000   1.000
    Zr16    Zr   0.25878   0.96333   0.19922   1.000
    Zr17    Zr   0.75878   0.96333   0.19922   1.000
    Zr18    Zr   0.00754   0.51193   0.27074   1.000
    Zr19    Zr   0.50754   0.51193   0.27074   1.000
    Zr20    Zr   0.17115   0.20295   0.49383   1.000
    Zr21    Zr   0.67116   0.20295   0.49383   1.000
    Zr22    Zr   0.34010   0.53670   0.30067   1.000
    Zr23    Zr   0.84010   0.53670   0.30060   1.000
    Zr24    Zr   0.10123   0.01188   0.77079   1.000
    Zr25    Zr   0.60123   0.01187   0.77079   1.000
    Zr26    Zr   0.48054   0.70297   0.99371   1.000
    Zr27    Zr   0.98054   0.70297   0.99371   1.000
    Zr28    Zr   0.24131   0.03663   0.80071   1.000
    Zr29    Zr   0.74131   0.03664   0.80070   1.000
    Zr30    Zr   0.49254   0.48803   0.72921   1.000
    Zr31    Zr   0.99254   0.48803   0.72921   1.000
    Zr32    Zr   0.32892   0.79700   0.50610   1.000
    Zr33    Zr   0.82893   0.79700   0.50610   1.000
    Zr34    Zr   0.15998   0.46327   0.69925   1.000
    Zr35    Zr   0.65999   0.46327   0.69925   1.000
    Zr36    Zr   0.34643   0.02637   0.28970   1.000
    Zr37    Zr   0.84643   0.02637   0.28978   1.000
    Zr38    Zr   0.42361   0.89218   0.21075   1.000
    Zr39    Zr   0.92361   0.89218   0.21075   1.000
    Zr40    Zr   0.06499   0.27987   0.92450   1.000
    Zr41    Zr   0.56499   0.27987   0.92450   1.000
    Zr42    Zr   0.49868   0.38754   0.03494   1.000
    Zr43    Zr   0.99868   0.38754   0.03494   1.000
    Zr44    Zr   0.30605   0.89291   0.22026   1.000
    Zr45    Zr   0.80606   0.89291   0.22026   1.000
    Zr46    Zr   0.21610   0.02088   0.26341   1.000
    Zr47    Zr   0.71610   0.02088   0.26341   1.000
    Zr48    Zr   0.00449   0.47359   0.21028   1.000
    Zr49    Zr   0.50449   0.47359   0.21028   1.000
    Zr50    Zr   0.47521   0.60791   0.28890   1.000
    Zr51    Zr   0.97521   0.60791   0.28897   1.000
    Zr52    Zr   0.16713   0.22005   0.57558   1.000
    Zr53    Zr   0.66713   0.22005   0.57558   1.000
    Zr54    Zr   0.20998   0.11247   0.46504   1.000
    Zr55    Zr   0.70998   0.11247   0.46504   1.000
    Zr56    Zr   0.36275   0.60696   0.27971   1.000
    Zr57    Zr   0.86276   0.60696   0.27971   1.000
    Zr58    Zr   0.35821   0.47934   0.23641   1.000
    Zr59    Zr   0.85821   0.47934   0.23641   1.000
    Zr60    Zr   0.15366   0.97357   0.71010   1.000
    Zr61    Zr   0.65367   0.97357   0.71016   1.000
    Zr62    Zr   0.07649   0.10775   0.78919   1.000
    Zr63    Zr   0.57650   0.10775   0.78919   1.000
    Zr64    Zr   0.43509   0.72009   0.07543   1.000
    Zr65    Zr   0.93509   0.72009   0.07543   1.000
    Zr66    Zr   0.00141   0.61242   0.96499   1.000
    Zr67    Zr   0.50141   0.61242   0.96499   1.000
    Zr68    Zr   0.19403   0.10705   0.77966   1.000
    Zr69    Zr   0.69403   0.10705   0.77966   1.000
    Zr70    Zr   0.28398   0.97908   0.73652   1.000
    Zr71    Zr   0.78399   0.97909   0.73652   1.000
    Zr72    Zr   0.49560   0.52639   0.78963   1.000
    Zr73    Zr   0.99560   0.52639   0.78964   1.000
    Zr74    Zr   0.02485   0.39204   0.71100   1.000
    Zr75    Zr   0.52485   0.39204   0.71100   1.000
    Zr76    Zr   0.33296   0.77990   0.42435   1.000
    Zr77    Zr   0.83296   0.77990   0.42435   1.000
    Zr78    Zr   0.29009   0.88748   0.53400   1.000
    Zr79    Zr   0.79009   0.88749   0.53490   1.000
    Zr80    Zr   0.13733   0.39302   0.72022   1.000
    Zr81    Zr   0.63733   0.39302   0.72022   1.000
    Zr82    Zr   0.14187   0.52063   0.76352   1.000
    Zr83    Zr   0.64188   0.52062   0.76352   1.000
    O84     O    0.50911   0.34227   0.01747   1.000
    O85     O    0.54227   0.28843   0.96225   1.000
    O86     O    0.00911   0.34227   0.01747   1.000
    O87     O    0.04227   0.28843   0.96225   1.000
    O88     O    0.47034   0.45568   0.08281   1.000
    O89     O    0.97034   0.45568   0.08281   1.000
    O90     O    0.45781   0.71153   0.03457   1.000
    O91     O    0.95781   0.71153   0.03457   1.000
    O92     O    0.97324   0.49870   0.17048   1.000
    O93     O    0.47324   0.49870   0.17048   1.000
    O94     O    0.28241   0.92812   0.20974   1.000
    O95     O    0.23744   0.99210   0.23131   1.000
    O96     O    0.78242   0.92812   0.20974   1.000
    O97     O    0.73744   0.99211   0.23131   1.000
    O98     O    0.00601   0.49276   0.24051   1.000
    O99     O    0.50601   0.49276   0.24051   1.000
    O100    O    0.91124   0.94012   0.21995   1.000
    O101    O    0.90831   0.82109   0.23032   1.000
    O102    O    0.41124   0.94012   0.21995   1.000
    O103    O    0.40831   0.82109   0.23032   1.000
    O104    O    0.87265   0.00722   0.25946   1.000
    O105    O    0.37265   0.00722   0.25942   1.000
    O106    O    0.84916   0.50802   0.26850   1.000
    O107    O    0.34915   0.50802   0.26854   1.000
    O108    O    0.43411   0.67895   0.26939   1.000
    O109    O    0.93411   0.67895   0.26943   1.000
    O110    O    0.49137   0.55992   0.27982   1.000
    O111    O    0.99137   0.55992   0.27985   1.000
    O112    O    0.85143   0.57183   0.29015   1.000
    O113    O    0.35143   0.57183   0.29019   1.000
    O114    O    0.30783   0.00127   0.32947   1.000
    O115    O    0.80783   0.00127   0.32951   1.000
    O116    O    0.23960   0.04432   0.41714   1.000
    O117    O    0.73960   0.04432   0.41714   1.000
    O118    O    0.33094   0.78845   0.46522   1.000
    O119    O    0.83094   0.78845   0.46522   1.000
    O120    O    0.69057   0.15771   0.47943   1.000
    O121    O    0.19057   0.15771   0.47943   1.000
    O122    O    0.66914   0.21150   0.53470   1.000
    O123    O    0.16914   0.21150   0.53470   1.000
    O124    O    0.80951   0.84224   0.52050   1.000
    O125    O    0.30951   0.84224   0.52005   1.000
    O126    O    0.26048   0.95564   0.58234   1.000
    O127    O    0.76048   0.95564   0.58279   1.000
    O128    O    0.19226   0.99868   0.67039   1.000
    O129    O    0.69227   0.99868   0.67042   1.000
    O130    O    0.64866   0.42814   0.70974   1.000
    O131    O    0.65093   0.49195   0.73138   1.000
    O132    O    0.14865   0.42815   0.70974   1.000
    O133    O    0.15093   0.49195   0.73138   1.000
    O134    O    0.12745   0.99272   0.74044   1.000
    O135    O    0.62745   0.99272   0.74047   1.000
    O136    O    0.50870   0.44003   0.72010   1.000
    O137    O    0.56597   0.32100   0.73052   1.000
    O138    O    0.00869   0.44003   0.72010   1.000
    O139    O    0.06596   0.32100   0.73052   1.000
    O140    O    0.99407   0.50721   0.75942   1.000
    O141    O    0.49407   0.50721   0.75942   1.000
    O142    O    0.26264   0.00785   0.76861   1.000
    O143    O    0.76265   0.00786   0.76861   1.000
    O144    O    0.59179   0.17886   0.76961   1.000
    O145    O    0.09179   0.17886   0.76961   1.000
    O146    O    0.08886   0.05981   0.77999   1.000
    O147    O    0.58887   0.05981   0.77999   1.000
    O148    O    0.21767   0.07184   0.79018   1.000
    O149    O    0.71767   0.07184   0.79018   1.000
    O150    O    0.52685   0.50128   0.82943   1.000
    O151    O    0.02685   0.50128   0.82944   1.000
    O152    O    0.52975   0.54429   0.91711   1.000
    O153    O    0.02975   0.54429   0.91711   1.000
    O154    O    0.49097   0.65770   0.97935   1.000
    O155    O    0.99097   0.65770   0.97935   1.000
    O156    O    0.06154   0.37802   0.89687   1.000
    O157    O    0.08603   0.26492   0.83727   1.000
    O158    O    0.56154   0.37802   0.89687   1.000
    O159    O    0.58604   0.26492   0.83727   1.000
    O160    O    0.52839   0.43185   0.95209   1.000
    O161    O    0.02839   0.43185   0.95209   1.000
    O162    O    0.28764   0.93454   0.29475   1.000
    O163    O    0.34953   0.82145   0.23507   1.000
    O164    O    0.78764   0.93454   0.29475   1.000
    O165    O    0.84953   0.82145   0.23507   1.000
    O166    O    0.24266   0.99852   0.31632   1.000
    O167    O    0.74266   0.99853   0.31632   1.000
    O168    O    0.19899   0.12192   0.60313   1.000
    O169    O    0.13710   0.23501   0.66281   1.000
    O170    O    0.69900   0.12192   0.60313   1.000
    O171    O    0.63710   0.23501   0.66281   1.000
    O172    O    0.22042   0.06813   0.54786   1.000
    O173    O    0.72043   0.06813   0.54786   1.000
    O174    O    0.40237   0.56538   0.20519   1.000
    O175    O    0.37788   0.67848   0.26480   1.000
    O176    O    0.90238   0.56538   0.20519   1.000
    O177    O    0.87788   0.67848   0.26480   1.000
    O178    O    0.40010   0.50157   0.18354   1.000
    O179    O    0.90011   0.50157   0.18354   1.000
    O180    O    0.43854   0.62195   0.10305   1.000
    O181    O    0.41405   0.73504   0.16266   1.000
    O182    O    0.93854   0.62195   0.10305   1.000
    O183    O    0.91405   0.73505   0.16266   1.000
    O184    O    0.97170   0.56811   0.04783   1.000
    O185    O    0.47170   0.56811   0.04783   1.000
    O186    O    0.21245   0.06542   0.70517   1.000
    O187    O    0.15055   0.17851   0.76485   1.000
    O188    O    0.71245   0.06542   0.70517   1.000
    O189    O    0.65056   0.17851   0.76485   1.000
    O190    O    0.25742   0.00143   0.68360   1.000
    O191    O    0.75743   0.00144   0.68360   1.000
    O192    O    0.30109   0.87803   0.39679   1.000
    O193    O    0.36298   0.76495   0.33712   1.000
    O194    O    0.80109   0.87804   0.39679   1.000
    O195    O    0.86298   0.76495   0.33712   1.000
    O196    O    0.27966   0.93183   0.45162   1.000
    O197    O    0.77966   0.93183   0.45207   1.000
    O198    O    0.09771   0.43459   0.79473   1.000
    O199    O    0.12220   0.32149   0.73513   1.000
    O200    O    0.59771   0.43459   0.79473   1.000
    O201    O    0.62220   0.32149   0.73513   1.000
    O202    O    0.09998   0.49839   0.81638   1.000
    O203    O    0.59998   0.49839   0.81638   1.000
    N204    N    0.59196   0.36051   0.37816   1.000
    O205    O    0.62158   0.30222   0.42084   1.000
    O206    O    0.56093   0.41703   0.33794   1.000
    N207    N    0.96133   0.13945   0.12181   1.000
    O208    O    0.93843   0.08295   0.16200   1.000
    O209    O    0.98313   0.19773   0.07760   1.000
    N210    N    0.25004   0.99997   0.99996   1.000
    O211    O    0.25333   0.98600   0.07395   1.000
    O212    O    0.24675   0.01395   0.92598   1.000
    N213    N    0.09196   0.36051   0.37817   1.000
    O214    O    0.12158   0.30222   0.42084   1.000
    O215    O    0.06093   0.41703   0.33794   1.000
    N216    N    0.03775   0.86051   0.87812   1.000
    O217    O    0.06116   0.91701   0.83793   1.000
    O218    O    0.01645   0.80223   0.92076   1.000
    N219    N    0.46132   0.13945   0.12181   1.000
    O220    O    0.43843   0.08295   0.16200   1.000
    O221    O    0.48313   0.19773   0.07760   1.000
    N222    N    0.40811   0.63944   0.62169   1.000
    O223    O    0.37849   0.69773   0.57904   1.000
    O224    O    0.43914   0.58293   0.66196   1.000
    N225    N    0.75004   0.99998   0.99993   1.000
    O226    O    0.74675   0.01396   0.92596   1.000
    O227    O    0.75334   0.98601   0.07393   1.000
    N228    N    0.90811   0.63944   0.62178   1.000
    O229    O    0.87850   0.69773   0.57909   1.000
    O230    O    0.93914   0.58292   0.66201   1.000
    N231    N    0.25004   0.49999   0.49994   1.000
    O232    O    0.28334   0.51399   0.42594   1.000
    O233    O    0.21673   0.48599   0.57394   1.000
    N234    N    0.53876   0.86051   0.87812   1.000
    O235    O    0.51695   0.80223   0.92078   1.000
    O236    O    0.56166   0.91700   0.83793   1.000
    N237    N    0.75004   0.49999   0.49996   1.000
    O238    O    0.71674   0.48599   0.57396   1.000
    O239    O    0.78335   0.51399   0.42595   1.000
loop_
    _geom_bond_atom_site_label_1
    _geom_bond_atom_site_label_2
    _geom_bond_distance
    _geom_bond_site_symmetry_2
    _ccdc_geom_bond_type
    Zr15   O84       0.66993      .   S
    Zr42   O84       0.66993      .   S
    Zr15   O85       0.61593  1_554   S
    Zr41   O85       0.61593      .   S
    Zr14   O86       0.66994      .   S
    Zr43   O86       0.66994  1_655   S
    Zr14   O87       0.61594  1_554   S
    Zr40   O87       0.61594      .   S
    Zr42   O88       1.16627      .   S
    Zr2    O88       1.16627      .   S
    Zr43   O89       1.16628      .   S
    Zr3    O89       1.16628      .   S
    Zr64   O90       0.64085      .   S
    Zr26   O90       0.64085  1_556   S
    Zr65   O91       0.64084      .   S
    Zr27   O91       0.64084  1_556   S
    Zr3    O92       1.11409      .   S
    Zr48   O92       1.11409  1_455   S
    Zr2    O93       1.11412      .   S
    Zr49   O93       1.11412      .   S
    Zr16   O94       0.64525      .   S
    Zr44   O94       0.64525      .   S
    Zr16   O95       0.63711      .   S
    Zr46   O95       0.63711  1_545   S
    Zr17   O96       0.64524      .   S
    Zr45   O96       0.64524      .   S
    Zr17   O97       0.63711      .   S
    Zr47   O97       0.63711  1_545   S
    Zr48   O98       0.64005      .   S
    Zr18   O98       0.64005      .   S
    Zr49   O99       0.64007      .   S
    Zr19   O99       0.64007      .   S
    Zr39   O100      0.63424      .   S
    Zr13   O100      0.63424      .   S
    Zr39   O101      1.15993      .   S
    Zr9    O101      1.15993      .   S
    Zr38   O102      0.63424      .   S
    Zr12   O102      0.63424      .   S
    Zr38   O103      1.15994      .   S
    Zr8    O103      1.15994      .   S
    Zr13   O104      0.64010  1_565   S
    Zr37   O104      0.64010      .   S
    Zr12   O105      0.63990  1_565   S
    Zr36   O105      0.63990      .   S
    Zr59   O106      0.63651      .   S
    Zr23   O106      0.63651      .   S
    Zr58   O107      0.63695      .   S
    Zr22   O107      0.63695      .   S
    Zr8    O108      1.15990      .   S
    Zr50   O108      1.15990      .   S
    Zr9    O109      1.16008      .   S
    Zr51   O109      1.16008      .   S
    Zr19   O110      0.63410      .   S
    Zr50   O110      0.63410      .   S
    Zr18   O111      0.63426  1_455   S
    Zr51   O111      0.63426      .   S
    Zr57   O112      0.64544      .   S
    Zr23   O112      0.64544      .   S
    Zr56   O113      0.64527      .   S
    Zr22   O113      0.64527      .   S
    Zr36   O114      1.11423      .   S
    Zr0    O114      1.11423  1_565   S
    Zr37   O115      1.11427      .   S
    Zr1    O115      1.11427  1_565   S
    Zr0    O116      1.16670  1_565   S
    Zr54   O116      1.16670      .   S
    Zr1    O117      1.16669  1_565   S
    Zr55   O117      1.16669      .   S
    Zr76   O118      0.64075      .   S
    Zr32   O118      0.64075      .   S
    Zr77   O119      0.64075      .   S
    Zr33   O119      0.64075      .   S
    Zr55   O120      0.64393      .   S
    Zr21   O120      0.64393      .   S
    Zr54   O121      0.64392      .   S
    Zr20   O121      0.64392      .   S
    Zr21   O122      0.64081      .   S
    Zr53   O122      0.64081      .   S
    Zr20   O123      0.64080      .   S
    Zr52   O123      0.64080      .   S
    Zr33   O124      0.64395      .   S
    Zr79   O124      0.64395      .   S
    Zr32   O125      0.64161      .   S
    Zr78   O125      0.64161      .   S
    Zr78   O126      1.17088      .   S
    Zr4    O126      1.17088  1_545   S
    Zr79   O127      1.16669      .   S
    Zr5    O127      1.16669  1_545   S
    Zr4    O128      1.11429  1_545   S
    Zr60   O128      1.11429      .   S
    Zr5    O129      1.11426  1_545   S
    Zr61   O129      1.11426      .   S
    Zr35   O130      0.64525      .   S
    Zr81   O130      0.64525      .   S
    Zr35   O131      0.63699      .   S
    Zr83   O131      0.63699      .   S
    Zr34   O132      0.64525      .   S
    Zr80   O132      0.64525      .   S
    Zr34   O133      0.63699      .   S
    Zr82   O133      0.63699      .   S
    Zr60   O134      0.64023      .   S
    Zr24   O134      0.64023  1_545   S
    Zr61   O135      0.64008      .   S
    Zr25   O135      0.64008  1_545   S
    Zr75   O136      0.63427      .   S
    Zr30   O136      0.63427      .   S
    Zr75   O137      1.16013      .   S
    Zr11   O137      1.16013      .   S
    Zr74   O138      0.63426      .   S
    Zr31   O138      0.63426  1_655   S
    Zr74   O139      1.16013      .   S
    Zr10   O139      1.16013      .   S
    Zr31   O140      0.64010      .   S
    Zr73   O140      0.64010      .   S
    Zr30   O141      0.64004      .   S
    Zr72   O141      0.64004      .   S
    Zr70   O142      0.63711  1_565   S
    Zr28   O142      0.63711      .   S
    Zr71   O143      0.63706  1_565   S
    Zr29   O143      0.63706      .   S
    Zr11   O144      1.15992      .   S
    Zr63   O144      1.15992      .   S
    Zr10   O145      1.15991      .   S
    Zr62   O145      1.15991      .   S
    Zr24   O146      0.63421      .   S
    Zr62   O146      0.63421      .   S
    Zr25   O147      0.63422      .   S
    Zr63   O147      0.63422      .   S
    Zr68   O148      0.64526      .   S
    Zr28   O148      0.64526      .   S
    Zr69   O149      0.64524      .   S
    Zr29   O149      0.64524      .   S
    Zr72   O150      1.11410      .   S
    Zr7    O150      1.11410      .   S
    Zr73   O151      1.11401  1_655   S
    Zr6    O151      1.11401      .   S
    Zr7    O152      1.16629      .   S
    Zr67   O152      1.16629      .   S
    Zr6    O153      1.16630      .   S
    Zr66   O153      1.16630      .   S
    Zr67   O154      0.64397      .   S
    Zr26   O154      0.64397      .   S
    Zr66   O155      0.64397  1_455   S
    Zr27   O155      0.64397      .   S
    Zr40   O156      1.24153      .   S
    Zr6    O156      1.24153      .   S
    Zr40   O157      1.21098      .   S
    Zr10   O157      1.21098      .   S
    Zr41   O158      1.24154      .   S
    Zr7    O158      1.24154      .   S
    Zr41   O159      1.21098      .   S
    Zr11   O159      1.21098      .   S
    Zr42   O160      1.22803  1_554   S
    Zr7    O160      1.22803      .   S
    Zr43   O161      1.22800  1_654   S
    Zr6    O161      1.22800      .   S
    Zr44   O162      1.24684      .   S
    Zr0    O162      1.24684      .   S
    Zr44   O163      1.18384      .   S
    Zr8    O163      1.18384      .   S
    Zr45   O164      1.24683      .   S
    Zr1    O164      1.24683      .   S
    Zr45   O165      1.18384      .   S
    Zr9    O165      1.18384      .   S
    Zr46   O166      1.17394  1_545   S
    Zr0    O166      1.17394      .   S
    Zr47   O167      1.17392  1_545   S
    Zr1    O167      1.17392      .   S
    Zr52   O168      1.24161      .   S
    Zr4    O168      1.24161      .   S
    Zr52   O169      1.21086      .   S
    Zr10   O169      1.21086      .   S
    Zr53   O170      1.24161      .   S
    Zr5    O170      1.24161      .   S
    Zr53   O171      1.21085      .   S
    Zr11   O171      1.21085      .   S
    Zr54   O172      1.22791      .   S
    Zr4    O172      1.22791      .   S
    Zr55   O173      1.22792      .   S
    Zr5    O173      1.22792      .   S
    Zr56   O174      1.24641      .   S
    Zr2    O174      1.24641      .   S
    Zr56   O175      1.18388      .   S
    Zr8    O175      1.18388      .   S
    Zr57   O176      1.24640      .   S
    Zr3    O176      1.24640      .   S
    Zr57   O177      1.18389      .   S
    Zr9    O177      1.18389      .   S
    Zr58   O178      1.17399      .   S
    Zr2    O178      1.17399      .   S
    Zr59   O179      1.17399      .   S
    Zr3    O179      1.17399      .   S
    Zr64   O180      1.24152      .   S
    Zr2    O180      1.24152      .   S
    Zr64   O181      1.21098      .   S
    Zr8    O181      1.21098      .   S
    Zr65   O182      1.24151      .   S
    Zr3    O182      1.24151      .   S
    Zr65   O183      1.21098      .   S
    Zr9    O183      1.21098      .   S
    Zr66   O184      1.22798  1_456   S
    Zr3    O184      1.22798      .   S
    Zr67   O185      1.22801  1_556   S
    Zr2    O185      1.22801      .   S
    Zr68   O186      1.24679      .   S
    Zr4    O186      1.24679      .   S
    Zr68   O187      1.18385      .   S
    Zr10   O187      1.18385      .   S
    Zr69   O188      1.24679      .   S
    Zr5    O188      1.24679      .   S
    Zr69   O189      1.18384      .   S
    Zr11   O189      1.18384      .   S
    Zr70   O190      1.17393  1_565   S
    Zr4    O190      1.17393      .   S
    Zr71   O191      1.17395  1_565   S
    Zr5    O191      1.17395      .   S
    Zr76   O192      1.24163      .   S
    Zr0    O192      1.24163      .   S
    Zr76   O193      1.21083      .   S
    Zr8    O193      1.21083      .   S
    Zr77   O194      1.24163      .   S
    Zr1    O194      1.24163      .   S
    Zr77   O195      1.21083      .   S
    Zr9    O195      1.21083      .   S
    Zr78   O196      1.22188      .   S
    Zr0    O196      1.22188      .   S
    Zr79   O197      1.22792      .   S
    Zr1    O197      1.22792      .   S
    Zr80   O198      1.24633      .   S
    Zr6    O198      1.24633      .   S
    Zr80   O199      1.18393      .   S
    Zr10   O199      1.18393      .   S
    Zr81   O200      1.24633      .   S
    Zr7    O200      1.24633      .   S
    Zr81   O201      1.18392      .   S
    Zr11   O201      1.18392      .   S
    Zr82   O202      1.17400      .   S
    Zr6    O202      1.17400      .   S
    Zr83   O203      1.17400      .   S
    Zr7    O203      1.17400      .   S
    N204   O205      1.07278      .   S
    Zr21   O205      1.81388      .   S
    N204   O206      1.07363      .   S
    Zr19   O206      1.82507      .   S
    N207   O208      1.07374      .   S
    Zr13   O208      1.82535  1_565   S
    N207   O209      1.07307      .   S
    Zr14   O209      1.81546  1_455   S
    N210   O211      1.07438  1_556   S
    Zr16   O211      1.82148      .   S
    N210   O212      1.07433  1_565   S
    Zr28   O212      1.82141      .   S
    N213   O214      1.07275      .   S
    Zr20   O214      1.81385      .   S
    N213   O215      1.07367      .   S
    Zr18   O215      1.82511      .   S
    N216   O217      1.08367      .   S
    Zr24   O217      1.83540  1_545   S
    N216   O218      1.06337      .   S
    Zr27   O218      1.80409  1_655   S
    N219   O220      1.07376      .   S
    Zr12   O220      1.82537  1_565   S
    N219   O221      1.07308      .   S
    Zr15   O221      1.81551      .   S
    N222   O223      1.07247      .   S
    Zr32   O223      1.81332      .   S
    N222   O224      1.07411      .   S
    Zr30   O224      1.82556      .   S
    N225   O226      1.07416  1_565   S
    Zr29   O226      1.82131      .   S
    N225   O227      1.07459  1_556   S
    Zr17   O227      1.82169      .   S
    N228   O229      1.07289      .   S
    Zr33   O229      1.81375      .   S
    N228   O230      1.07369      .   S
    Zr31   O230      1.82513      .   S
    N231   O232      1.07444      .   S
    Zr22   O232      1.82126      .   S
    N231   O233      1.07442      .   S
    Zr34   O233      1.82154      .   S
    N234   O235      1.07275      .   S
    Zr26   O235      1.81343      .   S
    N234   O236      1.07375      .   S
    Zr25   O236      1.82537  1_545   S
    N237   O238      1.07435      .   S
    Zr35   O238      1.82144      .   S
    N237   O239      1.07449      .   S
    Zr23   O239      1.82192      .   S
