# CIF file generated by openbabel 2.4.90, see http://openbabel.sf.net
data_I
_chemical_name_common ''
_cell_length_a 11.736
_cell_length_b 14.229
_cell_length_c 14.35
_cell_angle_alpha 76.733
_cell_angle_beta 89.878
_cell_angle_gamma 65.675
_space_group_name_H-M_alt 'P 1'
_space_group_name_Hall 'P 1'
loop_
    _symmetry_equiv_pos_as_xyz
    x,y,z
loop_
    _atom_site_label
    _atom_site_type_symbol
    _atom_site_fract_x
    _atom_site_fract_y
    _atom_site_fract_z
    _atom_site_occupancy
    N0      N    0.90455   0.03676   0.37594   1.000
    N1      N    0.39950   0.38913   0.48638   1.000
    N2      N    0.94084   0.96348   0.12401   1.000
    N3      N    0.78874   0.61083   0.01337   1.000
    N4      N    0.05918   0.03675   0.87594   1.000
    N5      N    0.21128   0.38911   0.98658   1.000
    N6      N    0.09548   0.96346   0.62401   1.000
    N7      N    0.60052   0.61082   0.51357   1.000
    Zr8     Zr   0.90289   0.53736   0.37407   1.000
    O9      O    0.90531   0.39019   0.37578   1.000
    O10     O    0.05260   0.49290   0.41171   1.000
    O11     O    0.90164   0.68391   0.37427   1.000
    O12     O    0.87280   0.55692   0.26390   1.000
    O13     O    0.80008   0.56247   0.41491   1.000
    O14     O    0.82602   0.55378   0.43085   1.000
    Zr15    Zr   0.56015   0.53741   0.87406   1.000
    O16     O    0.63778   0.56252   0.91483   1.000
    O17     O    0.62045   0.55381   0.93075   1.000
    O18     O    0.70493   0.39020   0.87578   1.000
    O19     O    0.41488   0.68397   0.87430   1.000
    O20     O    0.45475   0.49294   0.91181   1.000
    O21     O    0.57060   0.55690   0.76396   1.000
    Zr22    Zr   0.09712   0.46259   0.62589   1.000
    O23     O    0.09471   0.60983   0.62417   1.000
    O24     O    0.09838   0.31610   0.62568   1.000
    O25     O    0.19994   0.43748   0.58504   1.000
    O26     O    0.17400   0.44617   0.56910   1.000
    O27     O    0.12722   0.44303   0.73606   1.000
    O28     O    0.94742   0.50705   0.58824   1.000
    Zr29    Zr   0.43987   0.46254   0.12589   1.000
    O30     O    0.42942   0.44305   0.23599   1.000
    O31     O    0.54527   0.50701   0.08814   1.000
    O32     O    0.36224   0.43743   0.08512   1.000
    O33     O    0.37957   0.44614   0.06920   1.000
    O34     O    0.29509   0.60982   0.12417   1.000
    O35     O    0.58514   0.31605   0.12565   1.000
loop_
    _geom_bond_atom_site_label_1
    _geom_bond_atom_site_label_2
    _geom_bond_distance
    _geom_bond_site_symmetry_2
    _ccdc_geom_bond_type
    Zr8    O9        2.07699      .   S
    N0     O9        5.03217      .   S
    Zr8    O10       1.64639  1_655   S
    N1     O10       3.77399      .   S
    Zr8    O11       2.07998      .   S
    N0     O11       5.04031  1_545   S
    Zr8    O12       1.55598      .   S
    N3     O12       3.55127      .   S
    Zr8    O13       1.29032      .   S
    N7     O13       2.65859      .   S
    Zr8    O14       1.20129      .   S
    N7     O14       2.78036      .   S
    Zr15   O16       1.29081      .   S
    N3     O16       2.65926  1_554   S
    Zr15   O17       1.20104      .   S
    N3     O17       2.78157  1_554   S
    Zr15   O18       2.07831      .   S
    N4     O18       5.03470  1_455   S
    Zr15   O19       2.08080      .   S
    N4     O19       5.04134  1_545   S
    Zr15   O20       1.64587      .   S
    N5     O20       3.77298      .   S
    Zr15   O21       1.55376      .   S
    N7     O21       3.54595      .   S
    Zr22   O23       2.07795      .   S
    N6     O23       5.03504      .   S
    Zr22   O24       2.07902      .   S
    N6     O24       5.03744  1_565   S
    Zr22   O25       1.29036      .   S
    N1     O25       2.65865      .   S
    Zr22   O26       1.20130      .   S
    N1     O26       2.78044      .   S
    Zr22   O27       1.55597      .   S
    N5     O27       3.55126      .   S
    Zr22   O28       1.64637  1_455   S
    N7     O28       3.77394      .   S
    Zr29   O30       1.55377      .   S
    N1     O30       3.54599      .   S
    Zr29   O31       1.64585      .   S
    N3     O31       3.77293      .   S
    Zr29   O32       1.29082      .   S
    N5     O32       2.65928  1_556   S
    Zr29   O33       1.20106      .   S
    N5     O33       2.78159  1_556   S
    Zr29   O34       2.07897      .   S
    N2     O34       5.03665  1_655   S
    Zr29   O35       2.08015      .   S
    N2     O35       5.03940  1_565   S
