# CIF file generated by openbabel 2.4.90, see http://openbabel.sf.net
data_I
_chemical_name_common ''
_cell_length_a 11.736
_cell_length_b 14.229
_cell_length_c 14.35
_cell_angle_alpha 76.733
_cell_angle_beta 89.878
_cell_angle_gamma 65.675
_space_group_name_H-M_alt 'P 1'
_space_group_name_Hall 'P 1'
loop_
    _symmetry_equiv_pos_as_xyz
    x,y,z
loop_
    _atom_site_label
    _atom_site_type_symbol
    _atom_site_fract_x
    _atom_site_fract_y
    _atom_site_fract_z
    _atom_site_occupancy
    C0      C    0.90289   0.53736   0.37407   1.000
    C1      C    0.43987   0.46254   0.12589   1.000
    C2      C    0.09712   0.46259   0.62589   1.000
    C3      C    0.56015   0.53741   0.87406   1.000
    C4      C    0.80156   0.60290   0.79051   1.000
    C5      C    0.97583   0.63633   0.85675   1.000
    C6      C    0.08288   0.65923   0.38510   1.000
    C7      C    0.07746   0.83522   0.38307   1.000
    C8      C    0.67143   0.96046   0.35909   1.000
    C9      C    0.69479   0.77869   0.35697   1.000
    C10     C    0.13498   0.12169   0.36649   1.000
    C11     C    0.10995   0.30386   0.36844   1.000
    C12     C    0.72891   0.40166   0.39919   1.000
    C13     C    0.73483   0.23029   0.39200   1.000
    C14     C    0.76025   0.08062   0.36822   1.000
    C15     C    0.04919   0.00000   0.37958   1.000
    C16     C    0.40322   0.39724   0.70917   1.000
    C17     C    0.61129   0.36354   0.64301   1.000
    C18     C    0.74145   0.34089   0.11481   1.000
    C19     C    0.91232   0.16505   0.11714   1.000
    C20     C    0.63205   0.03901   0.14071   1.000
    C21     C    0.47322   0.22073   0.14243   1.000
    C22     C    0.25662   0.87845   0.13320   1.000
    C23     C    0.41343   0.69620   0.13128   1.000
    C24     C    0.13015   0.59842   0.10108   1.000
    C25     C    0.96496   0.76985   0.10831   1.000
    C26     C    0.84109   0.91920   0.13203   1.000
    C27     C    0.04282   0.00661   0.12025   1.000
    C28     C    0.19847   0.39705   0.20944   1.000
    C29     C    0.02422   0.36359   0.14321   1.000
    C30     C    0.91716   0.34072   0.61486   1.000
    C31     C    0.92257   0.16473   0.61689   1.000
    C32     C    0.32859   0.03949   0.64085   1.000
    C33     C    0.30523   0.22126   0.64297   1.000
    C34     C    0.86505   0.87827   0.63345   1.000
    C35     C    0.89008   0.69610   0.63151   1.000
    C36     C    0.27111   0.59828   0.60078   1.000
    C37     C    0.26519   0.76965   0.60796   1.000
    C38     C    0.23977   0.91933   0.63173   1.000
    C39     C    0.95084   0.00633   0.62037   1.000
    C40     C    0.59682   0.60270   0.29078   1.000
    C41     C    0.38874   0.63639   0.35693   1.000
    C42     C    0.25857   0.65906   0.88514   1.000
    C43     C    0.08770   0.83490   0.88281   1.000
    C44     C    0.36797   0.96095   0.85923   1.000
    C45     C    0.52680   0.77922   0.85752   1.000
    C46     C    0.74340   0.12150   0.86674   1.000
    C47     C    0.58659   0.30375   0.86867   1.000
    C48     C    0.86987   0.40153   0.89887   1.000
    C49     C    0.03507   0.23011   0.89163   1.000
    C50     C    0.15894   0.08075   0.86792   1.000
    C51     C    0.95720   0.00000   0.87970   1.000
    C52     C    0.82483   0.62315   0.04864   1.000
    C53     C    0.73148   0.59785   0.01364   1.000
    C54     C    0.80891   0.60770   0.86490   1.000
    C55     C    0.90363   0.62838   0.90179   1.000
    C56     C    0.83643   0.63606   0.15024   1.000
    C57     C    0.63574   0.57768   0.07637   1.000
    C58     C    0.99360   0.72863   0.37808   1.000
    C59     C    0.98930   0.82763   0.37735   1.000
    C60     C    0.87242   0.91507   0.37146   1.000
    C61     C    0.76472   0.89582   0.36436   1.000
    C62     C    0.77719   0.79454   0.36397   1.000
    C63     C    0.93731   0.15826   0.37872   1.000
    C64     C    0.04257   0.18223   0.37257   1.000
    C65     C    0.02988   0.28323   0.37456   1.000
    C66     C    0.81753   0.33876   0.39037   1.000
    C67     C    0.82190   0.24059   0.38740   1.000
    C68     C    0.85742   0.02165   0.37251   1.000
    C69     C    0.95206   0.05184   0.37716   1.000
    C70     C    0.44808   0.37686   0.45114   1.000
    C71     C    0.32926   0.40215   0.48612   1.000
    C72     C    0.41575   0.39237   0.63480   1.000
    C73     C    0.53136   0.37159   0.59795   1.000
    C74     C    0.47295   0.36414   0.34952   1.000
    C75     C    0.21384   0.42197   0.42341   1.000
    C76     C    0.72172   0.27136   0.12184   1.000
    C77     C    0.81661   0.17244   0.12273   1.000
    C78     C    0.78742   0.08482   0.12858   1.000
    C79     C    0.66051   0.10381   0.13550   1.000
    C80     C    0.57150   0.20505   0.13568   1.000
    C81     C    0.09553   0.84184   0.12131   1.000
    C82     C    0.22465   0.81788   0.12731   1.000
    C83     C    0.31277   0.71686   0.12529   1.000
    C84     C    0.15595   0.66132   0.10980   1.000
    C85     C    0.06232   0.75950   0.11283   1.000
    C86     C    0.87918   0.97832   0.12761   1.000
    C87     C    0.00396   0.94829   0.12284   1.000
    C88     C    0.17518   0.37680   0.95131   1.000
    C89     C    0.26854   0.40210   0.98631   1.000
    C90     C    0.19112   0.39224   0.13506   1.000
    C91     C    0.09640   0.37156   0.09817   1.000
    C92     C    0.16358   0.36389   0.84971   1.000
    C93     C    0.36427   0.42227   0.92358   1.000
    C94     C    0.00644   0.27132   0.62188   1.000
    C95     C    0.01073   0.17232   0.62260   1.000
    C96     C    0.12760   0.08488   0.62848   1.000
    C97     C    0.23529   0.10413   0.63559   1.000
    C98     C    0.22283   0.20541   0.63598   1.000
    C99     C    0.06271   0.84168   0.62123   1.000
    C100    C    0.95746   0.81773   0.62738   1.000
    C101    C    0.97015   0.71673   0.62539   1.000
    C102    C    0.18249   0.66119   0.60960   1.000
    C103    C    0.17812   0.75936   0.61256   1.000
    C104    C    0.14260   0.97830   0.62743   1.000
    C105    C    0.04796   0.94811   0.62279   1.000
    C106    C    0.55194   0.62308   0.54881   1.000
    C107    C    0.67076   0.59780   0.51384   1.000
    C108    C    0.58428   0.60757   0.36515   1.000
    C109    C    0.46867   0.62835   0.40200   1.000
    C110    C    0.52706   0.63580   0.65043   1.000
    C111    C    0.78617   0.57799   0.57654   1.000
    C112    C    0.27830   0.72860   0.87811   1.000
    C113    C    0.18341   0.82751   0.87722   1.000
    C114    C    0.21260   0.91513   0.87136   1.000
    C115    C    0.33952   0.89614   0.86444   1.000
    C116    C    0.42852   0.79491   0.86426   1.000
    C117    C    0.90449   0.15811   0.87864   1.000
    C118    C    0.77537   0.18206   0.87264   1.000
    C119    C    0.68724   0.28309   0.87465   1.000
    C120    C    0.84407   0.33862   0.89015   1.000
    C121    C    0.93770   0.24045   0.88712   1.000
    C122    C    0.12085   0.02163   0.87233   1.000
    C123    C    0.99606   0.05166   0.87710   1.000
    C124    C    0.91180   0.63715   0.99233   1.000
    C125    C    0.72397   0.59144   0.92158   1.000
    C126    C    0.88959   0.71098   0.37195   1.000
    C127    C    0.91892   0.36121   0.38404   1.000
    C128    C    0.54876   0.36282   0.50741   1.000
    C129    C    0.31487   0.40859   0.57813   1.000
    C130    C    0.60013   0.28877   0.12774   1.000
    C131    C    0.27974   0.63887   0.11590   1.000
    C132    C    0.08824   0.36279   0.00763   1.000
    C133    C    0.27606   0.40850   0.07837   1.000
    C134    C    0.11043   0.28896   0.62800   1.000
    C135    C    0.08109   0.63874   0.61591   1.000
    C136    C    0.45127   0.63712   0.49254   1.000
    C137    C    0.68515   0.59136   0.42182   1.000
    C138    C    0.39989   0.71118   0.87221   1.000
    C139    C    0.72028   0.36108   0.88405   1.000
    C140    C    0.89045   0.54690   0.21408   1.000
    C141    C    0.80011   0.72836   0.15994   1.000
    C142    C    0.61234   0.61604   0.14752   1.000
    C143    C    0.58535   0.52173   0.04893   1.000
    C144    C    0.43706   0.45344   0.28570   1.000
    C145    C    0.52975   0.27195   0.33977   1.000
    C146    C    0.22942   0.38303   0.35260   1.000
    C147    C    0.10736   0.47814   0.45061   1.000
    C148    C    0.10955   0.45305   0.78587   1.000
    C149    C    0.19989   0.27159   0.84001   1.000
    C150    C    0.38767   0.38392   0.85242   1.000
    C151    C    0.41465   0.47823   0.95101   1.000
    C152    C    0.56301   0.54650   0.71425   1.000
    C153    C    0.47024   0.72799   0.66019   1.000
    C154    C    0.77058   0.61696   0.64733   1.000
    C155    C    0.89265   0.52182   0.54935   1.000
    O156    O    0.09232   0.36717   0.05290   1.000
    O157    O    0.13171   0.36979   0.97947   1.000
    O158    O    0.77816   0.61050   0.03114   1.000
    O159    O    0.68361   0.58777   0.04500   1.000
    O160    O    0.72772   0.59465   0.96761   1.000
    O161    O    0.83063   0.62960   0.09944   1.000
    O162    O    0.86831   0.63015   0.02049   1.000
    O163    O    0.61055   0.54971   0.06265   1.000
    O164    O    0.51261   0.49214   0.08741   1.000
    O165    O    0.62404   0.59686   0.11194   1.000
    O166    O    0.35796   0.43552   0.10213   1.000
    O167    O    0.23359   0.40037   0.10671   1.000
    O168    O    0.27230   0.40530   0.03234   1.000
    O169    O    0.14376   0.38190   0.11661   1.000
    O170    O    0.06031   0.36757   0.12069   1.000
    O171    O    0.14305   0.62987   0.10544   1.000
    O172    O    0.01364   0.76467   0.11057   1.000
    O173    O    0.10913   0.71041   0.11132   1.000
    O174    O    0.21784   0.65010   0.11285   1.000
    O175    O    0.07892   0.80067   0.11707   1.000
    O176    O    0.73158   0.30612   0.11832   1.000
    O177    O    0.29626   0.67786   0.12060   1.000
    O178    O    0.35980   0.55071   0.12089   1.000
    O179    O    0.86447   0.16875   0.11993   1.000
    O180    O    0.02339   0.97745   0.12154   1.000
    O181    O    0.04975   0.89507   0.12208   1.000
    O182    O    0.16009   0.82986   0.12431   1.000
    O183    O    0.76916   0.22190   0.12228   1.000
    O184    O    0.66093   0.28006   0.12479   1.000
    O185    O    0.80202   0.12863   0.12566   1.000
    O186    O    0.94157   0.96331   0.12523   1.000
    O187    O    0.26871   0.76737   0.12630   1.000
    O188    O    0.36310   0.70653   0.12829   1.000
    O189    O    0.52000   0.37566   0.12681   1.000
    O190    O    0.43846   0.45799   0.20579   1.000
    O191    O    0.24063   0.84816   0.13026   1.000
    O192    O    0.83330   0.03157   0.12810   1.000
    O193    O    0.86013   0.94876   0.12982   1.000
    O194    O    0.58582   0.24691   0.13171   1.000
    O195    O    0.72396   0.09432   0.13204   1.000
    O196    O    0.19480   0.39464   0.17225   1.000
    O197    O    0.61600   0.15443   0.13559   1.000
    O198    O    0.64628   0.07141   0.13811   1.000
    O199    O    0.52236   0.21289   0.13905   1.000
    O200    O    0.81827   0.68221   0.15509   1.000
    O201    O    0.86344   0.59148   0.18216   1.000
    O202    O    0.89667   0.54213   0.29407   1.000
    O203    O    0.45500   0.40879   0.31761   1.000
    O204    O    0.59055   0.60513   0.32796   1.000
    O205    O    0.50135   0.31805   0.34465   1.000
    O206    O    0.46051   0.37050   0.40033   1.000
    O207    O    0.22163   0.40250   0.38800   1.000
    O208    O    0.42871   0.63237   0.37947   1.000
    O209    O    0.73599   0.78661   0.36047   1.000
    O210    O    0.71808   0.92814   0.36173   1.000
    O211    O    0.77096   0.84518   0.36416   1.000
    O212    O    0.83339   0.75276   0.36796   1.000
    O213    O    0.81857   0.90544   0.36791   1.000
    O214    O    0.52647   0.61796   0.38357   1.000
    O215    O    0.63472   0.59946   0.39348   1.000
    O216    O    0.08877   0.15196   0.36953   1.000
    O217    O    0.80883   0.05113   0.37037   1.000
    O218    O    0.06991   0.29354   0.37150   1.000
    O219    O    0.86492   0.96836   0.37199   1.000
    O220    O    0.93086   0.87135   0.37441   1.000
    O221    O    0.89624   0.62417   0.37301   1.000
    O222    O    0.94159   0.71981   0.37501   1.000
    O223    O    0.90474   0.03674   0.37484   1.000
    O224    O    0.03622   0.23273   0.37356   1.000
    O225    O    0.98994   0.17025   0.37565   1.000
    O226    O    0.91091   0.44929   0.37905   1.000
    O227    O    0.79402   0.56436   0.39794   1.000
    O228    O    0.00512   0.50775   0.41234   1.000
    O229    O    0.97440   0.32222   0.37930   1.000
    O230    O    0.94469   0.10505   0.37794   1.000
    O231    O    0.00063   0.02592   0.37837   1.000
    O232    O    0.99145   0.77813   0.37771   1.000
    O233    O    0.03338   0.83142   0.38021   1.000
    O234    O    0.03824   0.69393   0.38159   1.000
    O235    O    0.87960   0.19943   0.38306   1.000
    O236    O    0.86823   0.34998   0.38720   1.000
    O237    O    0.81971   0.28967   0.38888   1.000
    O238    O    0.77836   0.23544   0.38970   1.000
    O239    O    0.77322   0.37021   0.39478   1.000
    O240    O    0.45997   0.63273   0.44727   1.000
    O241    O    0.67795   0.59458   0.46783   1.000
    O242    O    0.16060   0.45006   0.43701   1.000
    O243    O    0.27155   0.41206   0.45476   1.000
    O244    O    0.38867   0.38951   0.46863   1.000
    O245    O    0.49842   0.36984   0.47927   1.000
    O246    O    0.32207   0.40537   0.53212   1.000
    O247    O    0.50160   0.63010   0.52067   1.000
    O248    O    0.54006   0.36720   0.55268   1.000
    O249    O    0.61135   0.61044   0.53132   1.000
    O250    O    0.72846   0.58790   0.54519   1.000
    O251    O    0.53950   0.62944   0.59962   1.000
    O252    O    0.83941   0.54990   0.56295   1.000
    O253    O    0.99489   0.49220   0.58762   1.000
    O254    O    0.77838   0.59747   0.61194   1.000
    O255    O    0.20600   0.43559   0.60201   1.000
    O256    O    0.36531   0.40048   0.60647   1.000
    O257    O    0.47356   0.38198   0.61638   1.000
    O258    O    0.57133   0.36757   0.62048   1.000
    O259    O    0.22680   0.62973   0.60519   1.000
    O260    O    0.22166   0.76450   0.61026   1.000
    O261    O    0.18031   0.71027   0.61108   1.000
    O262    O    0.13179   0.64996   0.61275   1.000
    O263    O    0.12042   0.80052   0.61689   1.000
    O264    O    0.96180   0.30602   0.61837   1.000
    O265    O    0.02562   0.67773   0.62065   1.000
    O266    O    0.08911   0.55066   0.62090   1.000
    O267    O    0.96665   0.16853   0.61975   1.000
    O268    O    0.99940   0.97722   0.62158   1.000
    O269    O    0.05533   0.89490   0.62201   1.000
    O270    O    0.01008   0.82970   0.62430   1.000
    O271    O    0.00858   0.22182   0.62224   1.000
    O272    O    0.05843   0.28014   0.62494   1.000
    O273    O    0.06916   0.12860   0.62554   1.000
    O274    O    0.09528   0.96321   0.62511   1.000
    O275    O    0.96380   0.76723   0.62638   1.000
    O276    O    0.93011   0.70641   0.62845   1.000
    O277    O    0.10378   0.37578   0.62695   1.000
    O278    O    0.10334   0.45782   0.70588   1.000
    O279    O    0.91125   0.84800   0.63041   1.000
    O280    O    0.13510   0.03159   0.62796   1.000
    O281    O    0.19119   0.94881   0.62958   1.000
    O282    O    0.16663   0.24719   0.63199   1.000
    O283    O    0.18145   0.09450   0.63204   1.000
    O284    O    0.40948   0.39481   0.67199   1.000
    O285    O    0.22906   0.15477   0.63578   1.000
    O286    O    0.28194   0.07181   0.63822   1.000
    O287    O    0.26403   0.21334   0.63948   1.000
    O288    O    0.49865   0.68189   0.65531   1.000
    O289    O    0.54503   0.59115   0.68234   1.000
    O290    O    0.56158   0.54195   0.79415   1.000
    O291    O    0.13657   0.40847   0.81779   1.000
    O292    O    0.80523   0.60530   0.82770   1.000
    O293    O    0.18174   0.31774   0.84486   1.000
    O294    O    0.16938   0.37035   0.90051   1.000
    O295    O    0.37597   0.40310   0.88800   1.000
    O296    O    0.93973   0.63236   0.87927   1.000
    O297    O    0.47766   0.78706   0.86089   1.000
    O298    O    0.35374   0.92855   0.86183   1.000
    O299    O    0.38402   0.84553   0.86435   1.000
    O300    O    0.41421   0.75304   0.86824   1.000
    O301    O    0.27606   0.90564   0.86790   1.000
    O302    O    0.85627   0.61804   0.88334   1.000
    O303    O    0.76644   0.59957   0.89324   1.000
    O304    O    0.75939   0.15178   0.86969   1.000
    O305    O    0.13989   0.05119   0.87012   1.000
    O306    O    0.63692   0.29342   0.87166   1.000
    O307    O    0.16672   0.96838   0.87185   1.000
    O308    O    0.19801   0.87132   0.87429   1.000
    O309    O    0.48002   0.62430   0.87314   1.000
    O310    O    0.33910   0.71989   0.87516   1.000
    O311    O    0.05845   0.03664   0.87472   1.000
    O312    O    0.73131   0.23258   0.87365   1.000
    O313    O    0.83993   0.17009   0.87564   1.000
    O314    O    0.64022   0.44924   0.87906   1.000
    O315    O    0.64206   0.56443   0.89782   1.000
    O316    O    0.48740   0.50782   0.91254   1.000
    O317    O    0.70376   0.32208   0.87935   1.000
    O318    O    0.95027   0.10488   0.87787   1.000
    O319    O    0.97663   0.02583   0.87840   1.000
    O320    O    0.23086   0.77805   0.87767   1.000
    O321    O    0.13555   0.83120   0.88002   1.000
    O322    O    0.26844   0.69383   0.88163   1.000
    O323    O    0.92109   0.19928   0.88288   1.000
    O324    O    0.78217   0.34985   0.88710   1.000
    O325    O    0.89088   0.28954   0.88864   1.000
    O326    O    0.98638   0.23528   0.88938   1.000
    O327    O    0.85697   0.37008   0.89451   1.000
    O328    O    0.90771   0.63276   0.94706   1.000
    O329    O    0.38946   0.45025   0.93729   1.000
    O330    O    0.31641   0.41218   0.95495   1.000
    O331    O    0.22186   0.38945   0.96881   1.000
    O332    O    0.57275   0.52957   0.96150   1.000
    O333    O    0.10224   0.47036   0.53825   1.000
    O334    O    0.42726   0.47038   0.03845   1.000
    O335    O    0.89777   0.52959   0.46171   1.000
loop_
    _geom_bond_atom_site_label_1
    _geom_bond_atom_site_label_2
    _geom_bond_distance
    _geom_bond_site_symmetry_2
    _ccdc_geom_bond_type
    C132   O156      0.67037      .   S
    C91    O156      0.67037      .   S
    C132   O157      0.67533  1_554   S
    C88    O157      0.67533      .   S
    C53    O158      0.70578      .   S
    C52    O158      0.70578      .   S
    C53    O159      0.75793      .   S
    C57    O159      0.75793      .   S
    C53    O160      0.67519  1_554   S
    C125   O160      0.67519      .   S
    C52    O161      0.76193      .   S
    C56    O161      0.76193      .   S
    C52    O162      0.67534      .   S
    C124   O162      0.67534  1_556   S
    C143   O163      0.64638      .   S
    C57    O163      0.64638      .   S
    C143   O164      1.18258      .   S
    C1     O164      1.18258      .   S
    C57    O165      0.62183      .   S
    C142   O165      0.62183      .   S
    C133   O166      1.24663      .   S
    C1     O166      1.24663      .   S
    C133   O167      0.67248      .   S
    C90    O167      0.67248      .   S
    C133   O168      0.67519      .   S
    C89    O168      0.67519  1_556   S
    C91    O169      0.69754      .   S
    C90    O169      0.69754      .   S
    C91    O170      0.54578      .   S
    C29    O170      0.54578      .   S
    C24    O171      0.54394      .   S
    C84    O171      0.54394      .   S
    C25    O172      0.54518  1_655   S
    C85    O172      0.54518      .   S
    C84    O173      0.69352      .   S
    C85    O173      0.69352      .   S
    C84    O174      0.67559      .   S
    C131   O174      0.67559      .   S
    C85    O175      0.70382      .   S
    C81    O175      0.70382      .   S
    C18    O176      0.54442      .   S
    C76    O176      0.54442      .   S
    C131   O177      0.67516      .   S
    C83    O177      0.67516      .   S
    C131   O178      1.20404      .   S
    C1     O178      1.20404      .   S
    C19    O179      0.54439      .   S
    C77    O179      0.54439      .   S
    C27    O180      0.54666  1_545   S
    C87    O180      0.54666      .   S
    C81    O181      0.72867      .   S
    C87    O181      0.72867      .   S
    C81    O182      0.70380      .   S
    C82    O182      0.70380      .   S
    C76    O183      0.69314      .   S
    C77    O183      0.69314      .   S
    C76    O184      0.67500      .   S
    C130   O184      0.67500      .   S
    C77    O185      0.70398      .   S
    C78    O185      0.70398      .   S
    C87    O186      0.67630  1_455   S
    C86    O186      0.67630      .   S
    C83    O187      0.69479      .   S
    C82    O187      0.69479      .   S
    C83    O188      0.54589      .   S
    C23    O188      0.54589      .   S
    C1     O189      1.20321      .   S
    C130   O189      1.20321      .   S
    C1     O190      1.13402      .   S
    C144   O190      1.13402      .   S
    C82    O191      0.54553      .   S
    C22    O191      0.54553      .   S
    C86    O192      0.72828  1_565   S
    C78    O192      0.72828      .   S
    C86    O193      0.54696      .   S
    C26    O193      0.54696      .   S
    C130   O194      0.67315      .   S
    C80    O194      0.67315      .   S
    C78    O195      0.70386      .   S
    C79    O195      0.70386      .   S
    C90    O196      0.54549      .   S
    C28    O196      0.54549      .   S
    C79    O197      0.69431      .   S
    C80    O197      0.69431      .   S
    C79    O198      0.54527      .   S
    C20    O198      0.54527      .   S
    C80    O199      0.54470      .   S
    C21    O199      0.54470      .   S
    C56    O200      0.62219      .   S
    C141   O200      0.62219      .   S
    C56    O201      0.64362      .   S
    C140   O201      0.64362      .   S
    C140   O202      1.13496      .   S
    C0     O202      1.13496      .   S
    C144   O203      0.64364      .   S
    C74    O203      0.64364      .   S
    C40    O204      0.54547      .   S
    C108   O204      0.54547      .   S
    C145   O205      0.62217      .   S
    C74    O205      0.62217      .   S
    C74    O206      0.76162      .   S
    C70    O206      0.76162      .   S
    C146   O207      0.62191      .   S
    C75    O207      0.62191      .   S
    C41    O208      0.54574      .   S
    C109   O208      0.54574      .   S
    C9     O209      0.54467      .   S
    C62    O209      0.54467      .   S
    C8     O210      0.54526      .   S
    C61    O210      0.54526      .   S
    C62    O211      0.69431      .   S
    C61    O211      0.69431      .   S
    C62    O212      0.67319      .   S
    C126   O212      0.67319      .   S
    C61    O213      0.70384      .   S
    C60    O213      0.70384      .   S
    C108   O214      0.69753      .   S
    C109   O214      0.69753      .   S
    C108   O215      0.67253      .   S
    C137   O215      0.67253      .   S
    C10    O216      0.54552      .   S
    C64    O216      0.54552      .   S
    C14    O217      0.54697      .   S
    C68    O217      0.54697      .   S
    C11    O218      0.54591      .   S
    C65    O218      0.54591      .   S
    C60    O219      0.72825      .   S
    C68    O219      0.72825  1_545   S
    C60    O220      0.70411      .   S
    C59    O220      0.70411      .   S
    C126   O221      1.20172      .   S
    C0     O221      1.20172      .   S
    C126   O222      0.67528      .   S
    C58    O222      0.67528      .   S
    C68    O223      0.67625      .   S
    C69    O223      0.67625      .   S
    C64    O224      0.69473      .   S
    C65    O224      0.69473      .   S
    C64    O225      0.70406  1_455   S
    C63    O225      0.70406      .   S
    C0     O226      1.20257      .   S
    C127   O226      1.20257      .   S
    C0     O227      1.24564      .   S
    C137   O227      1.24564      .   S
    C0     O228      1.18273  1_655   S
    C147   O228      1.18273      .   S
    C65    O229      0.67523  1_455   S
    C127   O229      0.67523      .   S
    C69    O230      0.72860      .   S
    C63    O230      0.72860      .   S
    C69    O231      0.53394  1_655   S
    C15    O231      0.53394      .   S
    C59    O232      0.69312      .   S
    C58    O232      0.69312      .   S
    C59    O233      0.54437  1_655   S
    C7     O233      0.54437      .   S
    C58    O234      0.54440  1_655   S
    C6     O234      0.54440      .   S
    C63    O235      0.70380      .   S
    C67    O235      0.70380      .   S
    C127   O236      0.67562      .   S
    C66    O236      0.67562      .   S
    C67    O237      0.69352      .   S
    C66    O237      0.69352      .   S
    C67    O238      0.54509      .   S
    C13    O238      0.54509      .   S
    C66    O239      0.54392      .   S
    C12    O239      0.54392      .   S
    C109   O240      0.67039      .   S
    C136   O240      0.67039      .   S
    C137   O241      0.67496      .   S
    C107   O241      0.67496      .   S
    C75    O242      0.64636      .   S
    C147   O242      0.64636      .   S
    C75    O243      0.75796      .   S
    C71    O243      0.75796      .   S
    C70    O244      0.70575      .   S
    C71    O244      0.70575      .   S
    C70    O245      0.67519      .   S
    C128   O245      0.67519      .   S
    C71    O246      0.67495      .   S
    C129   O246      0.67495      .   S
    C136   O247      0.67519      .   S
    C106   O247      0.67519      .   S
    C128   O248      0.67039      .   S
    C73    O248      0.67039      .   S
    C107   O249      0.70574      .   S
    C106   O249      0.70574      .   S
    C107   O250      0.75796      .   S
    C111   O250      0.75796      .   S
    C106   O251      0.76162      .   S
    C110   O251      0.76162      .   S
    C155   O252      0.64635      .   S
    C111   O252      0.64635      .   S
    C155   O253      1.18271      .   S
    C2     O253      1.18271  1_455   S
    C111   O254      0.62190      .   S
    C154   O254      0.62190      .   S
    C129   O255      1.24569      .   S
    C2     O255      1.24569      .   S
    C129   O256      0.67254      .   S
    C72    O256      0.67254      .   S
    C73    O257      0.69751      .   S
    C72    O257      0.69751      .   S
    C73    O258      0.54576      .   S
    C17    O258      0.54576      .   S
    C36    O259      0.54392      .   S
    C102   O259      0.54392      .   S
    C37    O260      0.54508      .   S
    C103   O260      0.54508      .   S
    C102   O261      0.69352      .   S
    C103   O261      0.69352      .   S
    C102   O262      0.67562      .   S
    C135   O262      0.67562      .   S
    C103   O263      0.70381      .   S
    C99    O263      0.70381      .   S
    C30    O264      0.54441      .   S
    C94    O264      0.54441  1_455   S
    C135   O265      0.67522      .   S
    C101   O265      0.67522  1_655   S
    C135   O266      1.20258      .   S
    C2     O266      1.20258      .   S
    C31    O267      0.54437      .   S
    C95    O267      0.54437  1_455   S
    C39    O268      0.54670  1_545   S
    C105   O268      0.54670  1_455   S
    C99    O269      0.72860      .   S
    C105   O269      0.72860      .   S
    C99    O270      0.70395      .   S
    C100   O270      0.70395  1_655   S
    C94    O271      0.69312      .   S
    C95    O271      0.69312      .   S
    C94    O272      0.67515      .   S
    C134   O272      0.67515      .   S
    C95    O273      0.70406      .   S
    C96    O273      0.70406      .   S
    C105   O274      0.67625      .   S
    C104   O274      0.67625      .   S
    C101   O275      0.69474      .   S
    C100   O275      0.69474      .   S
    C101   O276      0.54590      .   S
    C35    O276      0.54590      .   S
    C2     O277      1.20172      .   S
    C134   O277      1.20172      .   S
    C2     O278      1.13495      .   S
    C148   O278      1.13495      .   S
    C100   O279      0.54552      .   S
    C34    O279      0.54552      .   S
    C104   O280      0.72825  1_565   S
    C96    O280      0.72825      .   S
    C104   O281      0.54697      .   S
    C38    O281      0.54697      .   S
    C134   O282      0.67319      .   S
    C98    O282      0.67319      .   S
    C96    O283      0.70384      .   S
    C97    O283      0.70384      .   S
    C72    O284      0.54547      .   S
    C16    O284      0.54547      .   S
    C97    O285      0.69432      .   S
    C98    O285      0.69432      .   S
    C97    O286      0.54527      .   S
    C32    O286      0.54527      .   S
    C98    O287      0.54467      .   S
    C33    O287      0.54467      .   S
    C110   O288      0.62217      .   S
    C153   O288      0.62217      .   S
    C110   O289      0.64364      .   S
    C152   O289      0.64364      .   S
    C152   O290      1.13402      .   S
    C3     O290      1.13402      .   S
    C148   O291      0.64362      .   S
    C92    O291      0.64362      .   S
    C4     O292      0.54550      .   S
    C54    O292      0.54550      .   S
    C149   O293      0.62219      .   S
    C92    O293      0.62219      .   S
    C92    O294      0.76192      .   S
    C88    O294      0.76192      .   S
    C150   O295      0.62184      .   S
    C93    O295      0.62184      .   S
    C5     O296      0.54578      .   S
    C55    O296      0.54578      .   S
    C45    O297      0.54470      .   S
    C116   O297      0.54470      .   S
    C44    O298      0.54527      .   S
    C115   O298      0.54527      .   S
    C116   O299      0.69431      .   S
    C115   O299      0.69431      .   S
    C116   O300      0.67315      .   S
    C138   O300      0.67315      .   S
    C115   O301      0.70385      .   S
    C114   O301      0.70385      .   S
    C54    O302      0.69753      .   S
    C55    O302      0.69753      .   S
    C54    O303      0.67249      .   S
    C125   O303      0.67249      .   S
    C46    O304      0.54554      .   S
    C118   O304      0.54554      .   S
    C50    O305      0.54696      .   S
    C122   O305      0.54696      .   S
    C47    O306      0.54589      .   S
    C119   O306      0.54589      .   S
    C114   O307      0.72829      .   S
    C122   O307      0.72829  1_545   S
    C114   O308      0.70398      .   S
    C113   O308      0.70398      .   S
    C138   O309      1.20321      .   S
    C3     O309      1.20321      .   S
    C138   O310      0.67500      .   S
    C112   O310      0.67500      .   S
    C122   O311      0.67631      .   S
    C123   O311      0.67631  1_655   S
    C118   O312      0.69479      .   S
    C119   O312      0.69479      .   S
    C118   O313      0.70380      .   S
    C117   O313      0.70380      .   S
    C3     O314      1.20405      .   S
    C139   O314      1.20405      .   S
    C3     O315      1.24662      .   S
    C125   O315      1.24662      .   S
    C3     O316      1.18261      .   S
    C151   O316      1.18261      .   S
    C119   O317      0.67515      .   S
    C139   O317      0.67515      .   S
    C123   O318      0.72867      .   S
    C117   O318      0.72867      .   S
    C123   O319      0.50327      .   S
    C51    O319      0.50327      .   S
    C113   O320      0.69314      .   S
    C112   O320      0.69314      .   S
    C113   O321      0.54439      .   S
    C43    O321      0.54439      .   S
    C112   O322      0.54441      .   S
    C42    O322      0.54441      .   S
    C117   O323      0.70382      .   S
    C121   O323      0.70382      .   S
    C139   O324      0.67559      .   S
    C120   O324      0.67559      .   S
    C121   O325      0.69352      .   S
    C120   O325      0.69352      .   S
    C121   O326      0.54520      .   S
    C49    O326      0.54520  1_455   S
    C120   O327      0.54395      .   S
    C48    O327      0.54395      .   S
    C55    O328      0.67038      .   S
    C124   O328      0.67038      .   S
    C93    O329      0.64637      .   S
    C151   O329      0.64637      .   S
    C93    O330      0.75795      .   S
    C89    O330      0.75795      .   S
    C88    O331      0.70578      .   S
    C89    O331      0.70578      .   S
    C143   O332      1.23757  1_554   S
    C3     O332      1.23757      .   S
    C147   O333      1.24044      .   S
    C2     O333      1.24044      .   S
    C151   O334      1.23760  1_556   S
    C1     O334      1.23760      .   S
    C155   O335      1.24051      .   S
    C0     O335      1.24051      .   S
