# CIF file generated by openbabel 2.4.90, see http://openbabel.sf.net
data_I
_chemical_name_common ''
_cell_length_a 6.7565
_cell_length_b 7.1535
_cell_length_c 7.1865
_cell_angle_alpha 90.002
_cell_angle_beta 90.007
_cell_angle_gamma 90.001
_space_group_name_H-M_alt 'P 1'
_space_group_name_Hall 'P 1'
loop_
    _symmetry_equiv_pos_as_xyz
    x,y,z
loop_
    _atom_site_label
    _atom_site_type_symbol
    _atom_site_fract_x
    _atom_site_fract_y
    _atom_site_fract_z
    _atom_site_occupancy
    Zr0     Zr   0.99993   0.50010   0.49999   1.000
    Zr1     Zr   0.00000   0.00001   0.00000   1.000
    N2      N    0.49997   0.50009   0.49998   1.000
    O3      O    0.32290   0.50009   0.50002   1.000
    O4      O    0.67703   0.50009   0.49994   1.000
    N5      N    0.00007   0.25509   0.25475   1.000
    O6      O    0.00006   0.17696   0.17651   1.000
    O7      O    0.00003   0.33070   0.33061   1.000
    N8      N    0.99988   0.25509   0.74525   1.000
    O9      O    0.99990   0.33070   0.66939   1.000
    O10     O    0.99991   0.17696   0.82349   1.000
    N11     N    0.00008   0.74502   0.25478   1.000
    O12     O    0.00004   0.66943   0.33064   1.000
    O13     O    0.00006   0.82312   0.17653   1.000
    N14     N    0.99989   0.74502   0.74522   1.000
    O15     O    0.99991   0.82312   0.82347   1.000
    O16     O    0.99990   0.66944   0.66936   1.000
loop_
    _geom_bond_atom_site_label_1
    _geom_bond_atom_site_label_2
    _geom_bond_distance
    _geom_bond_site_symmetry_2
    _ccdc_geom_bond_type
    N2     O3        1.19642      .   S
    Zr0    O3        2.18211  1_655   S
    N2     O4        1.19628      .   S
    Zr0    O4        2.18169      .   S
    N5     O6        0.79275      .   S
    Zr1    O6        1.79199      .   S
    N5     O7        0.76795      .   S
    Zr0    O7        1.71758  1_655   S
    N8     O9        0.76799      .   S
    Zr0    O9        1.71769      .   S
    N8     O10       0.79278      .   S
    Zr1    O10       1.79205  1_454   S
    N11    O12       0.76783      .   S
    Zr0    O12       1.71720  1_655   S
    N11    O13       0.79271      .   S
    Zr1    O13       1.79186  1_545   S
    N14    O15       0.79269      .   S
    Zr1    O15       1.79182  1_444   S
    N14    O16       0.76781      .   S
    Zr0    O16       1.71717      .   S
