# CIF file generated by openbabel 2.4.90, see http://openbabel.sf.net
data_I
_chemical_name_common ''
_cell_length_a 6.7565
_cell_length_b 7.1535
_cell_length_c 7.1865
_cell_angle_alpha 90.002
_cell_angle_beta 90.007
_cell_angle_gamma 90.001
_space_group_name_H-M_alt 'P 1'
_space_group_name_Hall 'P 1'
loop_
    _symmetry_equiv_pos_as_xyz
    x,y,z
loop_
    _atom_site_label
    _atom_site_type_symbol
    _atom_site_fract_x
    _atom_site_fract_y
    _atom_site_fract_z
    _atom_site_occupancy
    C0      C    0.99993   0.50010   0.49999   1.000
    C1      C    0.68596   0.79044   0.49976   1.000
    C2      C    0.31400   0.79044   0.50023   1.000
    C3      C    0.31399   0.20974   0.50018   1.000
    C4      C    0.68595   0.20974   0.49972   1.000
    C5      C    0.00000   0.00001   0.00000   1.000
    C6      C    0.60245   0.66067   0.49993   1.000
    C7      C    0.99987   0.80243   0.80344   1.000
    C8      C    0.39750   0.66067   0.50005   1.000
    C9      C    0.00010   0.80243   0.19656   1.000
    C10     C    0.39750   0.33950   0.50003   1.000
    C11     C    0.00009   0.19765   0.19655   1.000
    C12     C    0.60245   0.33950   0.49991   1.000
    C13     C    0.99987   0.19765   0.80345   1.000
    C14     C    0.99990   0.68761   0.68699   1.000
    C15     C    0.00006   0.68761   0.31300   1.000
    C16     C    0.00005   0.31253   0.31295   1.000
    C17     C    0.99990   0.31252   0.68705   1.000
    C18     C    0.70824   0.50009   0.49983   1.000
    C19     C    0.29171   0.50009   0.50014   1.000
    O20     O    0.00005   0.09883   0.09827   1.000
    O21     O    0.00005   0.90122   0.09828   1.000
    O22     O    0.99994   0.90122   0.90172   1.000
    O23     O    0.99993   0.09883   0.90172   1.000
    O24     O    0.00007   0.25509   0.25475   1.000
    O25     O    0.00008   0.74502   0.25478   1.000
    O26     O    0.99999   0.40631   0.40647   1.000
    O27     O    1.00000   0.59385   0.40649   1.000
    O28     O    0.64420   0.27462   0.49981   1.000
    O29     O    0.64420   0.72556   0.49984   1.000
    O30     O    0.65534   0.41980   0.49987   1.000
    O31     O    0.65535   0.58038   0.49988   1.000
    O32     O    0.85409   0.50010   0.49991   1.000
    O33     O    0.49997   0.33950   0.49997   1.000
    O34     O    0.49998   0.66067   0.49999   1.000
    O35     O    0.14582   0.50010   0.50007   1.000
    O36     O    0.99992   0.59385   0.59349   1.000
    O37     O    0.99992   0.40631   0.59352   1.000
    O38     O    0.34460   0.41980   0.50009   1.000
    O39     O    0.35574   0.27462   0.50011   1.000
    O40     O    0.34460   0.58038   0.50010   1.000
    O41     O    0.35575   0.72556   0.50014   1.000
    O42     O    0.99989   0.74502   0.74522   1.000
    O43     O    0.99988   0.25509   0.74525   1.000
loop_
    _geom_bond_atom_site_label_1
    _geom_bond_atom_site_label_2
    _geom_bond_distance
    _geom_bond_site_symmetry_2
    _ccdc_geom_bond_type
    C5     O20       0.99923      .   S
    C11    O20       0.99923      .   S
    C5     O21       0.99915  1_545   S
    C9     O21       0.99915      .   S
    C5     O22       0.99912  1_444   S
    C7     O22       0.99912      .   S
    C5     O23       0.99927  1_454   S
    C13    O23       0.99927      .   S
    C11    O24       0.58629      .   S
    C16    O24       0.58629      .   S
    C9     O25       0.58629      .   S
    C15    O25       0.58629      .   S
    C16    O26       0.94963  1_455   S
    C0     O26       0.94963      .   S
    C15    O27       0.94938  1_455   S
    C0     O27       0.94938      .   S
    C4     O28       0.54315      .   S
    C12    O28       0.54315      .   S
    C1     O29       0.54316      .   S
    C6     O29       0.54316      .   S
    C18    O30       0.67650      .   S
    C12    O30       0.67650      .   S
    C18    O31       0.67647      .   S
    C6     O31       0.67647      .   S
    C18    O32       0.98540      .   S
    C0     O32       0.98540      .   S
    C12    O33       0.69237      .   S
    C10    O33       0.69237      .   S
    C6     O34       0.69237      .   S
    C8     O34       0.69237      .   S
    C0     O35       0.98569  1_655   S
    C19    O35       0.98569      .   S
    C0     O36       0.94936      .   S
    C14    O36       0.94936      .   S
    C0     O37       0.94970      .   S
    C17    O37       0.94970      .   S
    C10    O38       0.67650      .   S
    C19    O38       0.67650      .   S
    C10    O39       0.54315      .   S
    C3     O39       0.54315      .   S
    C8     O40       0.67647      .   S
    C19    O40       0.67647      .   S
    C8     O41       0.54316      .   S
    C2     O41       0.54316      .   S
    C14    O42       0.58628      .   S
    C7     O42       0.58628      .   S
    C17    O43       0.58630      .   S
    C13    O43       0.58630      .   S
