# CIF file generated by openbabel 2.4.90, see http://openbabel.sf.net
data_I
_chemical_name_common ''
_cell_length_a 22.207
_cell_length_b 14.008
_cell_length_c 16.175
_cell_angle_alpha 90
_cell_angle_beta 90
_cell_angle_gamma 90
_space_group_name_H-M_alt 'P 1'
_space_group_name_Hall 'P 1'
loop_
    _symmetry_equiv_pos_as_xyz
    x,y,z
loop_
    _atom_site_label
    _atom_site_type_symbol
    _atom_site_fract_x
    _atom_site_fract_y
    _atom_site_fract_z
    _atom_site_occupancy
    N0      N    0.00000   0.00003   0.50001   1.000
    N1      N    0.50000   0.99999   0.50000   1.000
    N2      N    0.75004   0.50002   0.99997   1.000
    N3      N    0.24997   0.49999   0.99999   1.000
    Zr4     Zr   0.75000   0.00002   0.99999   1.000
    O5      O    0.75001   0.16808   0.99999   1.000
    O6      O    0.75001   0.83197   0.99999   1.000
    Zr7     Zr   0.25000   0.99997   1.00000   1.000
    O8      O    0.24999   0.16803   0.99999   1.000
    O9      O    0.24999   0.83192   1.00000   1.000
    O10     O    0.82062   0.00026   0.13630   1.000
    O11     O    0.82062   0.99979   0.86369   1.000
    O12     O    0.67938   0.99978   0.13630   1.000
    O13     O    0.67938   0.00025   0.86369   1.000
    O14     O    0.17938   0.00023   0.13630   1.000
    O15     O    0.17938   0.99975   0.86370   1.000
    O16     O    0.32062   0.00022   0.86369   1.000
    O17     O    0.32062   0.99974   0.13630   1.000
loop_
    _geom_bond_atom_site_label_1
    _geom_bond_atom_site_label_2
    _geom_bond_distance
    _geom_bond_site_symmetry_2
    _ccdc_geom_bond_type
    Zr4    O5        2.35409      .   S
    N2     O5        4.64986      .   S
    Zr4    O6        2.35412  1_545   S
    N2     O6        4.64993      .   S
    Zr7    O8        2.35417  1_565   S
    N3     O8        4.65003      .   S
    Zr7    O9        2.35402      .   S
    N3     O9        4.64977      .   S
    Zr4    O10       2.70567  1_556   S
    N0     O10       7.10473  1_455   S
    Zr4    O11       2.70551  1_545   S
    N0     O11       7.10447  1_445   S
    Zr4    O12       2.70565  1_546   S
    N1     O12       7.10469      .   S
    Zr4    O13       2.70551      .   S
    N1     O13       7.10448  1_565   S
    Zr7    O14       2.70563  1_566   S
    N0     O14       7.10464      .   S
    Zr7    O15       2.70551      .   S
    N0     O15       7.10449  1_545   S
    Zr7    O16       2.70556  1_565   S
    N1     O16       7.10460  1_565   S
    Zr7    O17       2.70566  1_556   S
    N1     O17       7.10473      .   S
