# CIF file generated by openbabel 2.4.90, see http://openbabel.sf.net
data_I
_chemical_name_common ''
_cell_length_a 22.207
_cell_length_b 14.008
_cell_length_c 16.175
_cell_angle_alpha 90
_cell_angle_beta 90
_cell_angle_gamma 90
_space_group_name_H-M_alt 'P 1'
_space_group_name_Hall 'P 1'
loop_
    _symmetry_equiv_pos_as_xyz
    x,y,z
loop_
    _atom_site_label
    _atom_site_type_symbol
    _atom_site_fract_x
    _atom_site_fract_y
    _atom_site_fract_z
    _atom_site_occupancy
    Zr0     Zr   0.24999   0.90157   0.00000   1.000
    Zr1     Zr   0.75000   0.90162   0.99999   1.000
    Zr2     Zr   0.25000   0.09837   0.99999   1.000
    Zr3     Zr   0.75001   0.09843   0.99999   1.000
    O4      O    0.25000   0.99997   1.00000   1.000
    O5      O    0.75000   0.00002   0.99999   1.000
    N6      N    0.00000   0.00003   0.50001   1.000
    O7      O    0.89126   0.95470   0.72737   1.000
    O8      O    0.10878   0.04439   0.72742   1.000
    O9      O    0.10878   0.95564   0.27259   1.000
    O10     O    0.89126   0.04536   0.27264   1.000
    O11     O    0.10874   0.04535   0.27264   1.000
    O12     O    0.89122   0.95565   0.27258   1.000
    O13     O    0.89122   0.04441   0.72742   1.000
    O14     O    0.10874   0.95468   0.72737   1.000
    N15     N    0.50000   0.99999   0.50000   1.000
    O16     O    0.39122   0.95561   0.72742   1.000
    O17     O    0.60875   0.04534   0.72736   1.000
    O18     O    0.60874   0.95467   0.27264   1.000
    O19     O    0.39122   0.04436   0.27258   1.000
    O20     O    0.60879   0.04438   0.27258   1.000
    O21     O    0.39126   0.95465   0.27264   1.000
    O22     O    0.39126   0.04532   0.72736   1.000
    O23     O    0.60878   0.95563   0.72742   1.000
    N24     N    0.75004   0.50002   0.99997   1.000
    O25     O    0.75003   0.66391   0.99998   1.000
    O26     O    0.75003   0.33613   0.99998   1.000
    N27     N    0.24997   0.49999   0.99999   1.000
    O28     O    0.24998   0.66387   1.00000   1.000
    O29     O    0.24998   0.33609   0.99999   1.000
loop_
    _geom_bond_atom_site_label_1
    _geom_bond_atom_site_label_2
    _geom_bond_distance
    _geom_bond_site_symmetry_2
    _ccdc_geom_bond_type
    Zr0    O4        1.37842  1_554   S
    Zr2    O4        1.37842  1_545   S
    Zr1    O5        1.37845  1_565   S
    Zr3    O5        1.37845      .   S
    N6     O7        4.44514  1_445   S
    Zr1    O7        5.46247      .   S
    N6     O8        4.44441      .   S
    Zr2    O8        5.46298      .   S
    N6     O9        4.44443  1_545   S
    Zr0    O9        5.46335      .   S
    N6     O10       4.44517  1_455   S
    Zr3    O10       5.46275  1_556   S
    N6     O11       4.44519      .   S
    Zr2    O11       5.46267  1_556   S
    N6     O12       4.44455  1_445   S
    Zr1    O12       5.46340  1_556   S
    N6     O13       4.44438  1_455   S
    Zr3    O13       5.46308      .   S
    N6     O14       4.44515  1_545   S
    Zr0    O14       5.46255  1_554   S
    N15    O16       4.44456      .   S
    Zr0    O16       5.46328  1_554   S
    N15    O17       4.44515  1_565   S
    Zr3    O17       5.46252      .   S
    N15    O18       4.44513      .   S
    Zr1    O18       5.46270  1_556   S
    N15    O19       4.44448  1_565   S
    Zr2    O19       5.46338  1_556   S
    N15    O20       4.44455  1_565   S
    Zr3    O20       5.46340  1_556   S
    N15    O21       4.44526      .   S
    Zr0    O21       5.46274      .   S
    N15    O22       4.44511  1_565   S
    Zr2    O22       5.46246      .   S
    N15    O23       4.44439      .   S
    Zr1    O23       5.46302      .   S
    N24    O25       2.29580      .   S
    Zr1    O25       3.32980      .   S
    N24    O26       2.29578      .   S
    Zr3    O26       3.32972      .   S
    N27    O28       2.29575      .   S
    Zr0    O28       3.32963  1_554   S
    N27    O29       2.29586      .   S
    Zr2    O29       3.32993      .   S
