# CIF file generated by openbabel 2.4.90, see http://openbabel.sf.net
data_I
_chemical_name_common ''
_cell_length_a 22.207
_cell_length_b 14.008
_cell_length_c 16.175
_cell_angle_alpha 90
_cell_angle_beta 90
_cell_angle_gamma 90
_space_group_name_H-M_alt 'P 1'
_space_group_name_Hall 'P 1'
loop_
    _symmetry_equiv_pos_as_xyz
    x,y,z
loop_
    _atom_site_label
    _atom_site_type_symbol
    _atom_site_fract_x
    _atom_site_fract_y
    _atom_site_fract_z
    _atom_site_occupancy
    C0      C    0.24999   0.90157   0.00000   1.000
    C1      C    0.75000   0.90162   0.99999   1.000
    C2      C    0.25000   0.09837   0.99999   1.000
    C3      C    0.75001   0.09843   0.99999   1.000
    C4      C    0.43081   0.84723   0.66489   1.000
    C5      C    0.93114   0.84567   0.66404   1.000
    C6      C    0.37186   0.84854   0.79664   1.000
    C7      C    0.87220   0.84567   0.79580   1.000
    C8      C    0.06920   0.15278   0.66489   1.000
    C9      C    0.56889   0.15435   0.66400   1.000
    C10     C    0.12813   0.15147   0.79665   1.000
    C11     C    0.62783   0.15436   0.79577   1.000
    C12     C    0.06911   0.84742   0.33515   1.000
    C13     C    0.56886   0.84570   0.33590   1.000
    C14     C    0.12806   0.84861   0.20340   1.000
    C15     C    0.62781   0.84570   0.20422   1.000
    C16     C    0.43083   0.15263   0.33519   1.000
    C17     C    0.93114   0.15435   0.33598   1.000
    C18     C    0.37189   0.15142   0.20344   1.000
    C19     C    0.87220   0.15435   0.20421   1.000
    C20     C    0.06888   0.15445   0.33594   1.000
    C21     C    0.56918   0.15274   0.33515   1.000
    C22     C    0.12782   0.15440   0.20418   1.000
    C23     C    0.62812   0.15149   0.20340   1.000
    C24     C    0.43111   0.84559   0.33597   1.000
    C25     C    0.93085   0.84731   0.33514   1.000
    C26     C    0.37217   0.84563   0.20421   1.000
    C27     C    0.87192   0.84856   0.20338   1.000
    C28     C    0.43117   0.15426   0.66401   1.000
    C29     C    0.93088   0.15271   0.66490   1.000
    C30     C    0.37222   0.15433   0.79576   1.000
    C31     C    0.87194   0.15146   0.79665   1.000
    C32     C    0.06883   0.84574   0.66401   1.000
    C33     C    0.56919   0.84731   0.66485   1.000
    C34     C    0.12777   0.84568   0.79577   1.000
    C35     C    0.62814   0.84857   0.79660   1.000
    C36     C    0.34300   0.74779   0.00072   1.000
    C37     C    0.84305   0.74788   0.99917   1.000
    C38     C    0.34757   0.57101   0.00059   1.000
    C39     C    0.84765   0.57109   0.99925   1.000
    C40     C    0.15695   0.25213   0.00069   1.000
    C41     C    0.65700   0.25222   0.99914   1.000
    C42     C    0.15235   0.42892   0.00058   1.000
    C43     C    0.65244   0.42900   0.99923   1.000
    C44     C    0.15695   0.74784   0.99932   1.000
    C45     C    0.65700   0.74782   0.00084   1.000
    C46     C    0.15235   0.57105   0.99940   1.000
    C47     C    0.65244   0.57104   0.00075   1.000
    C48     C    0.34300   0.25218   0.99920   1.000
    C49     C    0.84305   0.25216   0.00084   1.000
    C50     C    0.34756   0.42896   0.99940   1.000
    C51     C    0.84765   0.42895   0.00075   1.000
    C52     C    0.41840   0.91465   0.69390   1.000
    C53     C    0.91859   0.91280   0.69351   1.000
    C54     C    0.38567   0.91503   0.76737   1.000
    C55     C    0.88587   0.91246   0.76691   1.000
    C56     C    0.08161   0.08536   0.69398   1.000
    C57     C    0.58144   0.08722   0.69349   1.000
    C58     C    0.11432   0.08498   0.76738   1.000
    C59     C    0.61417   0.08757   0.76688   1.000
    C60     C    0.08155   0.91481   0.30604   1.000
    C61     C    0.58142   0.91283   0.30651   1.000
    C62     C    0.11427   0.91513   0.23265   1.000
    C63     C    0.61414   0.91249   0.23311   1.000
    C64     C    0.41841   0.08523   0.30607   1.000
    C65     C    0.91858   0.08722   0.30651   1.000
    C66     C    0.38569   0.08490   0.23268   1.000
    C67     C    0.88586   0.08756   0.23311   1.000
    C68     C    0.08142   0.08731   0.30648   1.000
    C69     C    0.58159   0.08533   0.30605   1.000
    C70     C    0.11414   0.08762   0.23308   1.000
    C71     C    0.61432   0.08498   0.23266   1.000
    C72     C    0.41856   0.91273   0.30651   1.000
    C73     C    0.91842   0.91472   0.30604   1.000
    C74     C    0.38584   0.91241   0.23311   1.000
    C75     C    0.88570   0.91507   0.23265   1.000
    C76     C    0.41860   0.08714   0.69349   1.000
    C77     C    0.91844   0.08530   0.69399   1.000
    C78     C    0.38588   0.08753   0.76689   1.000
    C79     C    0.88573   0.08495   0.76738   1.000
    C80     C    0.08140   0.91286   0.69349   1.000
    C81     C    0.58161   0.91472   0.69395   1.000
    C82     C    0.11412   0.91248   0.76689   1.000
    C83     C    0.61433   0.91507   0.76734   1.000
    C84     C    0.43787   0.99985   0.50002   1.000
    C85     C    0.93787   0.99997   0.50001   1.000
    C86     C    0.06213   0.00015   0.50000   1.000
    C87     C    0.56214   0.00005   0.50000   1.000
    C88     C    0.24996   0.55298   0.00000   1.000
    C89     C    0.75005   0.55302   0.00000   1.000
    C90     C    0.24996   0.44699   0.99999   1.000
    C91     C    0.75005   0.44702   0.99999   1.000
    C92     C    0.46823   0.00030   0.57610   1.000
    C93     C    0.96823   0.99961   0.57610   1.000
    C94     C    0.43479   0.00069   0.65597   1.000
    C95     C    0.93480   0.99921   0.65598   1.000
    C96     C    0.36882   0.00146   0.80429   1.000
    C97     C    0.86883   0.99852   0.80430   1.000
    C98     C    0.33041   0.00181   0.88057   1.000
    C99     C    0.83043   0.99819   0.88058   1.000
    C100    C    0.03179   0.99969   0.57610   1.000
    C101    C    0.53179   0.00038   0.57610   1.000
    C102    C    0.06523   0.99929   0.65596   1.000
    C103    C    0.56524   0.00078   0.65596   1.000
    C104    C    0.13118   0.99853   0.80430   1.000
    C105    C    0.63121   0.00148   0.80427   1.000
    C106    C    0.16959   0.99818   0.88050   1.000
    C107    C    0.66960   0.00182   0.88057   1.000
    C108    C    0.03178   0.00050   0.42391   1.000
    C109    C    0.53178   0.99961   0.42391   1.000
    C110    C    0.06521   0.00088   0.34404   1.000
    C111    C    0.56522   0.99925   0.34404   1.000
    C112    C    0.13117   0.00152   0.19571   1.000
    C113    C    0.63120   0.99854   0.19573   1.000
    C114    C    0.16958   0.00182   0.11944   1.000
    C115    C    0.66959   0.99820   0.11944   1.000
    C116    C    0.46822   0.99952   0.42392   1.000
    C117    C    0.96822   0.00041   0.42392   1.000
    C118    C    0.43477   0.99914   0.34406   1.000
    C119    C    0.93478   0.00078   0.34405   1.000
    C120    C    0.36881   0.99848   0.19573   1.000
    C121    C    0.86881   0.00148   0.19573   1.000
    C122    C    0.33041   0.99817   0.11945   1.000
    C123    C    0.83043   0.00181   0.11943   1.000
    C124    C    0.30206   0.70487   0.00030   1.000
    C125    C    0.80211   0.70492   0.99958   1.000
    C126    C    0.30379   0.60579   0.00032   1.000
    C127    C    0.80387   0.60585   0.99960   1.000
    C128    C    0.19789   0.29508   0.00034   1.000
    C129    C    0.69795   0.29514   0.99956   1.000
    C130    C    0.19614   0.39416   0.00030   1.000
    C131    C    0.69622   0.39422   0.99950   1.000
    C132    C    0.19789   0.70489   0.99965   1.000
    C133    C    0.69795   0.70490   0.00042   1.000
    C134    C    0.19614   0.60581   0.99968   1.000
    C135    C    0.69622   0.60582   0.00040   1.000
    C136    C    0.30206   0.29511   0.99966   1.000
    C137    C    0.80212   0.29512   0.00000   1.000
    C138    C    0.30379   0.39418   0.99967   1.000
    C139    C    0.80387   0.39419   0.00040   1.000
    C140    C    0.35123   0.99970   0.50003   1.000
    C141    C    0.85123   0.99984   0.50002   1.000
    C142    C    0.14878   0.00030   0.49999   1.000
    C143    C    0.64878   0.00018   0.49999   1.000
    C144    C    0.24998   0.75396   0.00000   1.000
    C145    C    0.75003   0.75399   0.00000   1.000
    C146    C    0.24998   0.24601   0.99999   1.000
    C147    C    0.75003   0.24605   0.99999   1.000
    C148    C    0.31487   0.92091   0.90969   1.000
    C149    C    0.81504   0.91709   0.90947   1.000
    C150    C    0.18512   0.07911   0.90969   1.000
    C151    C    0.68497   0.08295   0.90946   1.000
    C152    C    0.18511   0.92091   0.09034   1.000
    C153    C    0.68496   0.91710   0.09055   1.000
    C154    C    0.31488   0.07911   0.09034   1.000
    C155    C    0.81504   0.08294   0.09055   1.000
    C156    C    0.18496   0.08294   0.09054   1.000
    C157    C    0.68513   0.07913   0.09033   1.000
    C158    C    0.31503   0.91707   0.09054   1.000
    C159    C    0.81488   0.92090   0.09033   1.000
    C160    C    0.31504   0.08294   0.90946   1.000
    C161    C    0.81489   0.07913   0.90968   1.000
    C162    C    0.18496   0.91708   0.90947   1.000
    C163    C    0.68513   0.92091   0.90968   1.000
    O164    O    0.80299   0.34466   0.00020   1.000
    O165    O    0.82258   0.27364   0.00042   1.000
    O166    O    0.77607   0.27059   0.99999   1.000
    O167    O    0.27687   0.57939   0.00016   1.000
    O168    O    0.22305   0.57940   0.99984   1.000
    O169    O    0.24996   0.49999   0.99999   1.000
    O170    O    0.19701   0.34462   0.00032   1.000
    O171    O    0.17424   0.41154   0.00044   1.000
    O172    O    0.22305   0.42057   0.00015   1.000
    O173    O    0.30292   0.65533   0.00031   1.000
    O174    O    0.32253   0.72633   0.00051   1.000
    O175    O    0.27601   0.72941   0.00015   1.000
    O176    O    0.32568   0.58840   0.00046   1.000
    O177    O    0.17742   0.27361   0.00051   1.000
    O178    O    0.22393   0.27055   0.00017   1.000
    O179    O    0.69708   0.65536   0.00041   1.000
    O180    O    0.67433   0.58843   0.00057   1.000
    O181    O    0.72313   0.57942   0.00020   1.000
    O182    O    0.82576   0.41157   0.00057   1.000
    O183    O    0.77696   0.42061   0.00019   1.000
    O184    O    0.67747   0.72636   0.00063   1.000
    O185    O    0.72399   0.72944   0.00021   1.000
    O186    O    0.67736   0.03867   0.10488   1.000
    O187    O    0.71757   0.08878   0.04516   1.000
    O188    O    0.82265   0.96136   0.10488   1.000
    O189    O    0.78244   0.91126   0.04516   1.000
    O190    O    0.32265   0.03864   0.10489   1.000
    O191    O    0.28244   0.08874   0.04516   1.000
    O192    O    0.17735   0.96137   0.10489   1.000
    O193    O    0.21755   0.91124   0.04517   1.000
    O194    O    0.17727   0.04238   0.10499   1.000
    O195    O    0.21748   0.09066   0.04526   1.000
    O196    O    0.32272   0.95762   0.10499   1.000
    O197    O    0.28251   0.90932   0.04527   1.000
    O198    O    0.82273   0.04237   0.10499   1.000
    O199    O    0.78252   0.09068   0.04527   1.000
    O200    O    0.67727   0.95765   0.10499   1.000
    O201    O    0.71748   0.90936   0.04527   1.000
    O202    O    0.84962   0.00164   0.15758   1.000
    O203    O    0.65039   0.99837   0.15758   1.000
    O204    O    0.15037   0.00167   0.15757   1.000
    O205    O    0.34961   0.99832   0.15759   1.000
    O206    O    0.12272   0.95833   0.21418   1.000
    O207    O    0.12265   0.04457   0.21440   1.000
    O208    O    0.87726   0.95827   0.21419   1.000
    O209    O    0.87734   0.04452   0.21442   1.000
    O210    O    0.37725   0.04169   0.21421   1.000
    O211    O    0.37733   0.95545   0.21442   1.000
    O212    O    0.62276   0.04176   0.21419   1.000
    O213    O    0.62267   0.95551   0.21442   1.000
    O214    O    0.87881   0.88181   0.21801   1.000
    O215    O    0.12117   0.88187   0.21802   1.000
    O216    O    0.62122   0.11823   0.21803   1.000
    O217    O    0.37879   0.11816   0.21806   1.000
    O218    O    0.12098   0.12101   0.21863   1.000
    O219    O    0.37901   0.87902   0.21866   1.000
    O220    O    0.87903   0.12096   0.21866   1.000
    O221    O    0.62097   0.87909   0.21866   1.000
    O222    O    0.90206   0.91489   0.26934   1.000
    O223    O    0.09791   0.91497   0.26934   1.000
    O224    O    0.59796   0.08516   0.26935   1.000
    O225    O    0.40205   0.08507   0.26937   1.000
    O226    O    0.09778   0.08747   0.26978   1.000
    O227    O    0.59778   0.91266   0.26981   1.000
    O228    O    0.40220   0.91257   0.26981   1.000
    O229    O    0.90222   0.08739   0.26981   1.000
    O230    O    0.92463   0.88102   0.32059   1.000
    O231    O    0.92660   0.95775   0.32504   1.000
    O232    O    0.07533   0.88111   0.32059   1.000
    O233    O    0.07338   0.95785   0.32504   1.000
    O234    O    0.57539   0.11904   0.32060   1.000
    O235    O    0.57341   0.04229   0.32504   1.000
    O236    O    0.42462   0.11893   0.32063   1.000
    O237    O    0.42659   0.04219   0.32506   1.000
    O238    O    0.07515   0.12088   0.32121   1.000
    O239    O    0.07332   0.04410   0.32526   1.000
    O240    O    0.42484   0.87916   0.32124   1.000
    O241    O    0.42667   0.95594   0.32528   1.000
    O242    O    0.92486   0.12079   0.32124   1.000
    O243    O    0.92668   0.04400   0.32528   1.000
    O244    O    0.57514   0.87927   0.32120   1.000
    O245    O    0.57332   0.95604   0.32527   1.000
    O246    O    0.04850   0.00069   0.38397   1.000
    O247    O    0.54850   0.99943   0.38397   1.000
    O248    O    0.95150   0.00060   0.38398   1.000
    O249    O    0.45149   0.99933   0.38399   1.000
    O250    O    0.00000   0.00046   0.42391   1.000
    O251    O    0.04696   0.00033   0.46195   1.000
    O252    O    0.50000   0.99957   0.42391   1.000
    O253    O    0.54696   0.99983   0.46195   1.000
    O254    O    0.45305   0.99968   0.46197   1.000
    O255    O    0.95305   0.00019   0.46196   1.000
    O256    O    0.60546   0.00012   0.49999   1.000
    O257    O    0.10546   0.00022   0.49999   1.000
    O258    O    0.54697   0.00021   0.53805   1.000
    O259    O    0.04696   0.99992   0.53805   1.000
    O260    O    0.89455   0.99991   0.50001   1.000
    O261    O    0.95305   0.99979   0.53805   1.000
    O262    O    0.39455   0.99978   0.50003   1.000
    O263    O    0.45305   0.00007   0.53806   1.000
    O264    O    0.00001   0.99965   0.57610   1.000
    O265    O    0.04851   0.99949   0.61603   1.000
    O266    O    0.50001   0.00034   0.57610   1.000
    O267    O    0.45151   0.00049   0.61603   1.000
    O268    O    0.54852   0.00058   0.61603   1.000
    O269    O    0.95151   0.99941   0.61604   1.000
    O270    O    0.07332   0.95608   0.67472   1.000
    O271    O    0.07342   0.04233   0.67497   1.000
    O272    O    0.57334   0.04400   0.67472   1.000
    O273    O    0.57343   0.95775   0.67495   1.000
    O274    O    0.42670   0.04392   0.67473   1.000
    O275    O    0.42659   0.95767   0.67493   1.000
    O276    O    0.92669   0.95601   0.67474   1.000
    O277    O    0.92662   0.04226   0.67499   1.000
    O278    O    0.57517   0.12079   0.67874   1.000
    O279    O    0.42489   0.12070   0.67875   1.000
    O280    O    0.07512   0.87930   0.67875   1.000
    O281    O    0.92487   0.87924   0.67877   1.000
    O282    O    0.57540   0.88102   0.67940   1.000
    O283    O    0.42460   0.88094   0.67939   1.000
    O284    O    0.07540   0.11907   0.67944   1.000
    O285    O    0.92466   0.11900   0.67944   1.000
    O286    O    0.59781   0.08739   0.73018   1.000
    O287    O    0.40224   0.08734   0.73019   1.000
    O288    O    0.09776   0.91267   0.73019   1.000
    O289    O    0.90223   0.91263   0.73021   1.000
    O290    O    0.40204   0.91484   0.73064   1.000
    O291    O    0.59797   0.91490   0.73064   1.000
    O292    O    0.09796   0.08517   0.73068   1.000
    O293    O    0.90209   0.08513   0.73068   1.000
    O294    O    0.62100   0.12096   0.78132   1.000
    O295    O    0.62269   0.04453   0.78557   1.000
    O296    O    0.37905   0.12093   0.78132   1.000
    O297    O    0.37735   0.04449   0.78559   1.000
    O298    O    0.12095   0.87908   0.78133   1.000
    O299    O    0.12265   0.95551   0.78560   1.000
    O300    O    0.87904   0.87907   0.78135   1.000
    O301    O    0.87735   0.95549   0.78560   1.000
    O302    O    0.62124   0.88182   0.78197   1.000
    O303    O    0.62277   0.95828   0.78580   1.000
    O304    O    0.37877   0.88179   0.78200   1.000
    O305    O    0.37725   0.95825   0.78583   1.000
    O306    O    0.87883   0.11821   0.78201   1.000
    O307    O    0.87728   0.04174   0.78584   1.000
    O308    O    0.12122   0.11822   0.78201   1.000
    O309    O    0.12275   0.04175   0.78584   1.000
    O310    O    0.65040   0.00165   0.84242   1.000
    O311    O    0.34962   0.00163   0.84243   1.000
    O312    O    0.15038   0.99835   0.84240   1.000
    O313    O    0.84963   0.99836   0.84244   1.000
    O314    O    0.17727   0.95763   0.89498   1.000
    O315    O    0.17736   0.03864   0.89509   1.000
    O316    O    0.32273   0.04237   0.89501   1.000
    O317    O    0.32264   0.96136   0.89513   1.000
    O318    O    0.67728   0.04238   0.89501   1.000
    O319    O    0.67736   0.96137   0.89512   1.000
    O320    O    0.82273   0.95764   0.89502   1.000
    O321    O    0.82266   0.03866   0.89513   1.000
    O322    O    0.71749   0.09069   0.95472   1.000
    O323    O    0.28252   0.09066   0.95472   1.000
    O324    O    0.21747   0.90932   0.95473   1.000
    O325    O    0.78252   0.90936   0.95473   1.000
    O326    O    0.71756   0.91127   0.95483   1.000
    O327    O    0.78245   0.08878   0.95483   1.000
    O328    O    0.21756   0.08874   0.95484   1.000
    O329    O    0.28243   0.91124   0.95484   1.000
    O330    O    0.67747   0.27368   0.99935   1.000
    O331    O    0.82258   0.72640   0.99937   1.000
    O332    O    0.32253   0.27365   0.99943   1.000
    O333    O    0.67433   0.41161   0.99936   1.000
    O334    O    0.82576   0.58847   0.99942   1.000
    O335    O    0.17742   0.72637   0.99948   1.000
    O336    O    0.32568   0.41157   0.99953   1.000
    O337    O    0.17424   0.58843   0.99954   1.000
    O338    O    0.69708   0.34468   0.99953   1.000
    O339    O    0.72313   0.42062   0.99974   1.000
    O340    O    0.72399   0.27060   0.99977   1.000
    O341    O    0.80299   0.65539   0.99959   1.000
    O342    O    0.77607   0.72946   0.99979   1.000
    O343    O    0.77696   0.57943   0.99980   1.000
    O344    O    0.19701   0.65535   0.99966   1.000
    O345    O    0.22393   0.72942   0.99983   1.000
    O346    O    0.30292   0.34465   0.99966   1.000
    O347    O    0.27602   0.27056   0.99983   1.000
    O348    O    0.27687   0.42058   0.99983   1.000
    O349    O    0.75001   0.82780   1.00000   1.000
    O350    O    0.24999   0.17219   0.99999   1.000
    O351    O    0.75002   0.17224   0.99999   1.000
    O352    O    0.75005   0.50002   0.99999   1.000
    O353    O    0.24998   0.82776   0.00000   1.000
    O354    O    0.25000   0.99997   1.00000   1.000
    O355    O    0.75000   0.00002   0.99999   1.000
loop_
    _geom_bond_atom_site_label_1
    _geom_bond_atom_site_label_2
    _geom_bond_distance
    _geom_bond_site_symmetry_2
    _ccdc_geom_bond_type
    C137   O164      0.69417      .   S
    C139   O164      0.69417      .   S
    C137   O165      0.54511      .   S
    C49    O165      0.54511      .   S
    C137   O166      0.67280  1_554   S
    C147   O166      0.67280      .   S
    C88    O167      0.70287      .   S
    C126   O167      0.70287      .   S
    C88    O168      0.70286  1_554   S
    C134   O168      0.70286      .   S
    C88    O169      0.74242  1_554   S
    C90    O169      0.74242      .   S
    C130   O170      0.69421      .   S
    C128   O170      0.69421      .   S
    C130   O171      0.54373      .   S
    C42    O171      0.54373      .   S
    C130   O172      0.70287      .   S
    C90    O172      0.70287  1_556   S
    C124   O173      0.69419      .   S
    C126   O173      0.69419      .   S
    C124   O174      0.54508      .   S
    C36    O174      0.54508      .   S
    C124   O175      0.67277      .   S
    C144   O175      0.67277      .   S
    C126   O176      0.54372      .   S
    C38    O176      0.54372      .   S
    C128   O177      0.54509      .   S
    C40    O177      0.54509      .   S
    C128   O178      0.67277      .   S
    C146   O178      0.67277  1_556   S
    C135   O179      0.69419      .   S
    C133   O179      0.69419      .   S
    C135   O180      0.54372      .   S
    C47    O180      0.54372      .   S
    C135   O181      0.70287      .   S
    C89    O181      0.70287      .   S
    C139   O182      0.54373      .   S
    C51    O182      0.54373      .   S
    C139   O183      0.70287      .   S
    C91    O183      0.70287  1_556   S
    C133   O184      0.54508      .   S
    C45    O184      0.54508      .   S
    C133   O185      0.67276      .   S
    C145   O185      0.67276      .   S
    C157   O186      0.63759      .   S
    C115   O186      0.63759  1_565   S
    C157   O187      1.03489      .   S
    C3     O187      1.03489  1_556   S
    C159   O188      0.63741      .   S
    C123   O188      0.63741  1_545   S
    C159   O189      1.03490      .   S
    C1     O189      1.03490  1_556   S
    C154   O190      0.63759      .   S
    C122   O190      0.63759  1_565   S
    C154   O191      1.03493      .   S
    C2     O191      1.03493  1_556   S
    C152   O192      0.63740      .   S
    C114   O192      0.63740  1_545   S
    C152   O193      1.03496      .   S
    C0     O193      1.03496      .   S
    C156   O194      0.63766      .   S
    C114   O194      0.63766      .   S
    C156   O195      1.03417      .   S
    C2     O195      1.03417  1_556   S
    C158   O196      0.63753      .   S
    C122   O196      0.63753      .   S
    C158   O197      1.03416      .   S
    C0     O197      1.03416      .   S
    C155   O198      0.63766      .   S
    C123   O198      0.63766      .   S
    C155   O199      1.03424      .   S
    C3     O199      1.03424  1_556   S
    C153   O200      0.63752      .   S
    C115   O200      0.63752      .   S
    C153   O201      1.03424      .   S
    C1     O201      1.03424  1_556   S
    C123   O202      0.74998      .   S
    C121   O202      0.74998      .   S
    C115   O203      0.74990      .   S
    C113   O203      0.74990      .   S
    C114   O204      0.74996      .   S
    C112   O204      0.74996      .   S
    C122   O205      0.74992      .   S
    C120   O205      0.74992      .   S
    C112   O206      0.70041  1_545   S
    C62    O206      0.70041      .   S
    C112   O207      0.70053      .   S
    C70    O207      0.70053      .   S
    C121   O208      0.70042  1_545   S
    C75    O208      0.70042      .   S
    C121   O209      0.70055      .   S
    C67    O209      0.70055      .   S
    C120   O210      0.70059  1_565   S
    C66    O210      0.70059      .   S
    C120   O211      0.70039      .   S
    C74    O211      0.70039      .   S
    C113   O212      0.70061  1_565   S
    C71    O212      0.70061      .   S
    C113   O213      0.70040      .   S
    C63    O213      0.70040      .   S
    C27    O214      0.54450      .   S
    C75    O214      0.54450      .   S
    C14    O215      0.54448      .   S
    C62    O215      0.54448      .   S
    C23    O216      0.54450      .   S
    C71    O216      0.54450      .   S
    C18    O217      0.54447      .   S
    C66    O217      0.54447      .   S
    C22    O218      0.54447      .   S
    C70    O218      0.54447      .   S
    C26    O219      0.54447      .   S
    C74    O219      0.54447      .   S
    C19    O220      0.54450      .   S
    C67    O220      0.54450      .   S
    C15    O221      0.54448      .   S
    C63    O221      0.54448      .   S
    C75    O222      0.69589      .   S
    C73    O222      0.69589      .   S
    C62    O223      0.69590      .   S
    C60    O223      0.69590      .   S
    C71    O224      0.69593      .   S
    C69    O224      0.69593      .   S
    C66    O225      0.69591      .   S
    C64    O225      0.69591      .   S
    C70    O226      0.69597      .   S
    C68    O226      0.69597      .   S
    C63    O227      0.69601      .   S
    C61    O227      0.69601      .   S
    C74    O228      0.69598      .   S
    C72    O228      0.69598      .   S
    C67    O229      0.69597      .   S
    C65    O229      0.69597      .   S
    C73    O230      0.54527      .   S
    C25    O230      0.54527      .   S
    C73    O231      0.70059      .   S
    C119   O231      0.70059  1_545   S
    C60    O232      0.54527      .   S
    C12    O232      0.54527      .   S
    C60    O233      0.70059      .   S
    C110   O233      0.70059  1_545   S
    C69    O234      0.54525      .   S
    C21    O234      0.54525      .   S
    C69    O235      0.70071      .   S
    C111   O235      0.70071  1_565   S
    C64    O236      0.54529      .   S
    C16    O236      0.54529      .   S
    C64    O237      0.70074      .   S
    C118   O237      0.70074  1_565   S
    C68    O238      0.54529      .   S
    C20    O238      0.54529      .   S
    C68    O239      0.70076      .   S
    C110   O239      0.70076      .   S
    C72    O240      0.54527      .   S
    C24    O240      0.54527      .   S
    C72    O241      0.70059      .   S
    C118   O241      0.70059      .   S
    C65    O242      0.54527      .   S
    C17    O242      0.54527      .   S
    C65    O243      0.70075      .   S
    C119   O243      0.70075      .   S
    C61    O244      0.54499      .   S
    C13    O244      0.54499      .   S
    C61    O245      0.70055      .   S
    C111   O245      0.70055      .   S
    C110   O246      0.74503      .   S
    C108   O246      0.74503      .   S
    C111   O247      0.74506      .   S
    C109   O247      0.74506      .   S
    C119   O248      0.74506      .   S
    C117   O248      0.74506      .   S
    C118   O249      0.74504      .   S
    C116   O249      0.74504      .   S
    C108   O250      0.70576      .   S
    C117   O250      0.70576  1_655   S
    C108   O251      0.70163      .   S
    C86    O251      0.70163      .   S
    C109   O252      0.70579      .   S
    C116   O252      0.70579      .   S
    C109   O253      0.70165      .   S
    C87    O253      0.70165  1_545   S
    C116   O254      0.70166      .   S
    C84    O254      0.70166      .   S
    C117   O255      0.70160      .   S
    C85    O255      0.70160  1_565   S
    C143   O256      0.96206      .   S
    C87    O256      0.96206      .   S
    C142   O257      0.96205      .   S
    C86    O257      0.96205      .   S
    C87    O258      0.70166      .   S
    C101   O258      0.70166      .   S
    C86    O259      0.70167  1_545   S
    C100   O259      0.70167      .   S
    C85    O260      0.96205      .   S
    C141   O260      0.96205      .   S
    C85    O261      0.70163      .   S
    C93    O261      0.70163      .   S
    C84    O262      0.96205      .   S
    C140   O262      0.96205      .   S
    C84    O263      0.70158  1_565   S
    C92    O263      0.70158      .   S
    C100   O264      0.70576      .   S
    C93    O264      0.70576  1_655   S
    C100   O265      0.74501      .   S
    C102   O265      0.74501      .   S
    C92    O266      0.70579      .   S
    C101   O266      0.70579      .   S
    C92    O267      0.74508      .   S
    C94    O267      0.74508      .   S
    C101   O268      0.74505      .   S
    C103   O268      0.74505      .   S
    C93    O269      0.74509      .   S
    C95    O269      0.74509      .   S
    C102   O270      0.70058      .   S
    C80    O270      0.70058      .   S
    C102   O271      0.70073  1_565   S
    C56    O271      0.70073      .   S
    C103   O272      0.70073      .   S
    C57    O272      0.70073      .   S
    C103   O273      0.70054  1_545   S
    C81    O273      0.70054      .   S
    C94    O274      0.70074      .   S
    C76    O274      0.70074      .   S
    C94    O275      0.70027  1_545   S
    C52    O275      0.70027      .   S
    C95    O276      0.70057      .   S
    C53    O276      0.70057      .   S
    C95    O277      0.70072  1_565   S
    C77    O277      0.70072      .   S
    C9     O278      0.54532      .   S
    C57    O278      0.54532      .   S
    C28    O279      0.54526      .   S
    C76    O279      0.54526      .   S
    C32    O280      0.54527      .   S
    C80    O280      0.54527      .   S
    C5     O281      0.54527      .   S
    C53    O281      0.54527      .   S
    C33    O282      0.54526      .   S
    C81    O282      0.54526      .   S
    C4     O283      0.54499      .   S
    C52    O283      0.54499      .   S
    C8     O284      0.54527      .   S
    C56    O284      0.54527      .   S
    C29    O285      0.54526      .   S
    C77    O285      0.54526      .   S
    C57    O286      0.69591      .   S
    C59    O286      0.69591      .   S
    C76    O287      0.69602      .   S
    C78    O287      0.69602      .   S
    C80    O288      0.69597      .   S
    C82    O288      0.69597      .   S
    C53    O289      0.69596      .   S
    C55    O289      0.69596      .   S
    C52    O290      0.69649      .   S
    C54    O290      0.69649      .   S
    C81    O291      0.69592      .   S
    C83    O291      0.69592      .   S
    C56    O292      0.69595      .   S
    C58    O292      0.69595      .   S
    C77    O293      0.69590      .   S
    C79    O293      0.69590      .   S
    C59    O294      0.54449      .   S
    C11    O294      0.54449      .   S
    C59    O295      0.70056      .   S
    C105   O295      0.70056      .   S
    C78    O296      0.54447      .   S
    C30    O296      0.54447      .   S
    C78    O297      0.70054      .   S
    C96    O297      0.70054      .   S
    C82    O298      0.54448      .   S
    C34    O298      0.54448      .   S
    C82    O299      0.70042      .   S
    C104   O299      0.70042      .   S
    C55    O300      0.54449      .   S
    C7     O300      0.54449      .   S
    C55    O301      0.70039      .   S
    C97    O301      0.70039      .   S
    C83    O302      0.54449      .   S
    C35    O302      0.54449      .   S
    C83    O303      0.70043      .   S
    C105   O303      0.70043  1_545   S
    C54    O304      0.54449      .   S
    C6     O304      0.54449      .   S
    C54    O305      0.70043      .   S
    C96    O305      0.70043  1_545   S
    C79    O306      0.54450      .   S
    C31    O306      0.54450      .   S
    C79    O307      0.70058      .   S
    C97    O307      0.70058  1_565   S
    C58    O308      0.54447      .   S
    C10    O308      0.54447      .   S
    C58    O309      0.70060      .   S
    C104   O309      0.70060  1_565   S
    C105   O310      0.74997      .   S
    C107   O310      0.74997      .   S
    C96    O311      0.74994      .   S
    C98    O311      0.74994      .   S
    C104   O312      0.74942      .   S
    C106   O312      0.74942      .   S
    C97    O313      0.74997      .   S
    C99    O313      0.74997      .   S
    C106   O314      0.63773      .   S
    C162   O314      0.63773      .   S
    C106   O315      0.63782  1_565   S
    C150   O315      0.63782      .   S
    C98    O316      0.63768      .   S
    C160   O316      0.63768      .   S
    C98    O317      0.63743  1_545   S
    C148   O317      0.63743      .   S
    C107   O318      0.63765      .   S
    C151   O318      0.63765      .   S
    C107   O319      0.63740  1_545   S
    C163   O319      0.63740      .   S
    C99    O320      0.63752      .   S
    C149   O320      0.63752      .   S
    C99    O321      0.63757  1_565   S
    C161   O321      0.63757      .   S
    C151   O322      1.03405      .   S
    C3     O322      1.03405      .   S
    C160   O323      1.03405      .   S
    C2     O323      1.03405      .   S
    C162   O324      1.03409      .   S
    C0     O324      1.03409  1_554   S
    C149   O325      1.03404      .   S
    C1     O325      1.03404      .   S
    C163   O326      1.03469      .   S
    C1     O326      1.03469      .   S
    C161   O327      1.03476      .   S
    C3     O327      1.03476      .   S
    C150   O328      1.03465      .   S
    C2     O328      1.03465      .   S
    C148   O329      1.03478      .   S
    C0     O329      1.03478  1_554   S
    C41    O330      0.54508      .   S
    C129   O330      0.54508      .   S
    C37    O331      0.54508      .   S
    C125   O331      0.54508      .   S
    C48    O332      0.54509      .   S
    C136   O332      0.54509      .   S
    C43    O333      0.54372      .   S
    C131   O333      0.54372      .   S
    C39    O334      0.54374      .   S
    C127   O334      0.54374      .   S
    C44    O335      0.54509      .   S
    C132   O335      0.54509      .   S
    C50    O336      0.54372      .   S
    C138   O336      0.54372      .   S
    C46    O337      0.54374      .   S
    C134   O337      0.54374      .   S
    C131   O338      0.69419      .   S
    C129   O338      0.69419      .   S
    C131   O339      0.70287      .   S
    C91    O339      0.70287      .   S
    C129   O340      0.67276      .   S
    C147   O340      0.67276      .   S
    C125   O341      0.69421      .   S
    C127   O341      0.69421      .   S
    C125   O342      0.67277      .   S
    C145   O342      0.67277  1_554   S
    C127   O343      0.70288      .   S
    C89    O343      0.70288  1_554   S
    C132   O344      0.69421      .   S
    C134   O344      0.69421      .   S
    C132   O345      0.67277      .   S
    C144   O345      0.67277  1_554   S
    C136   O346      0.69414      .   S
    C138   O346      0.69414      .   S
    C136   O347      0.67280      .   S
    C146   O347      0.67280      .   S
    C138   O348      0.70287      .   S
    C90    O348      0.70287      .   S
    C1     O349      1.03399      .   S
    C145   O349      1.03399  1_554   S
    C2     O350      1.03407      .   S
    C146   O350      1.03407      .   S
    C3     O351      1.03394      .   S
    C147   O351      1.03394      .   S
    C91    O352      0.74242      .   S
    C89    O352      0.74242  1_554   S
    C0     O353      1.03388      .   S
    C144   O353      1.03388      .   S
    C0     O354      1.37842  1_554   S
    C2     O354      1.37842  1_545   S
    C1     O355      1.37845  1_565   S
    C3     O355      1.37845      .   S
