# CIF file generated by openbabel 2.4.90, see http://openbabel.sf.net
data_I
_chemical_name_common ''
_cell_length_a 22.207
_cell_length_b 14.008
_cell_length_c 16.175
_cell_angle_alpha 90
_cell_angle_beta 90
_cell_angle_gamma 90
_space_group_name_H-M_alt 'P 1'
_space_group_name_Hall 'P 1'
loop_
    _symmetry_equiv_pos_as_xyz
    x,y,z
loop_
    _atom_site_label
    _atom_site_type_symbol
    _atom_site_fract_x
    _atom_site_fract_y
    _atom_site_fract_z
    _atom_site_occupancy
    N0      N    0.00000   0.00003   0.50001   1.000
    N1      N    0.50000   0.99999   0.50000   1.000
    N2      N    0.75004   0.50002   0.99997   1.000
    N3      N    0.24997   0.49999   0.99999   1.000
    Zr4     Zr   0.75000   0.00002   0.99999   1.000
    O5      O    0.67939   0.02220   0.13629   1.000
    O6      O    0.82063   0.02269   0.13631   1.000
    O7      O    0.67937   0.02268   0.86368   1.000
    O8      O    0.75001   0.16808   0.99999   1.000
    O9      O    0.82061   0.02221   0.86371   1.000
    O10     O    0.67937   0.97735   0.13631   1.000
    O11     O    0.67939   0.97783   0.86370   1.000
    O12     O    0.82063   0.97736   0.86368   1.000
    O13     O    0.75001   0.83197   0.99999   1.000
    O14     O    0.82061   0.97784   0.13629   1.000
    Zr15    Zr   0.25000   0.99997   1.00000   1.000
    O16     O    0.17939   0.02218   0.86371   1.000
    O17     O    0.17937   0.02266   0.13632   1.000
    O18     O    0.32061   0.02217   0.13629   1.000
    O19     O    0.24999   0.16803   0.99999   1.000
    O20     O    0.32063   0.02265   0.86368   1.000
    O21     O    0.32063   0.97731   0.13632   1.000
    O22     O    0.17939   0.97780   0.13629   1.000
    O23     O    0.32061   0.97779   0.86371   1.000
    O24     O    0.24999   0.83192   1.00000   1.000
    O25     O    0.17937   0.97733   0.86368   1.000
loop_
    _geom_bond_atom_site_label_1
    _geom_bond_atom_site_label_2
    _geom_bond_distance
    _geom_bond_site_symmetry_2
    _ccdc_geom_bond_type
    Zr4    O5        2.72312  1_556   S
    N1     O5        7.11182  1_565   S
    Zr4    O6        2.72454  1_556   S
    N0     O6        7.11150  1_455   S
    Zr4    O7        2.72436      .   S
    N1     O7        7.11128  1_565   S
    Zr4    O8        2.35409      .   S
    N2     O8        4.64986      .   S
    Zr4    O9        2.72302      .   S
    N0     O9        7.11155  1_455   S
    Zr4    O10       2.72455  1_546   S
    N1     O10       7.11145      .   S
    Zr4    O11       2.72302  1_545   S
    N1     O11       7.11156      .   S
    Zr4    O12       2.72437  1_545   S
    N0     O12       7.11127  1_445   S
    Zr4    O13       2.35412  1_545   S
    N2     O13       4.64993      .   S
    Zr4    O14       2.72315  1_546   S
    N0     O14       7.11184  1_445   S
    Zr15   O16       2.72302  1_565   S
    N0     O16       7.11157      .   S
    Zr15   O17       2.72450  1_566   S
    N0     O17       7.11144      .   S
    Zr15   O18       2.72318  1_566   S
    N1     O18       7.11180  1_565   S
    Zr15   O19       2.35417  1_565   S
    N3     O19       4.65003      .   S
    Zr15   O20       2.72448  1_565   S
    N1     O20       7.11134  1_565   S
    Zr15   O21       2.72449  1_556   S
    N1     O21       7.11154      .   S
    Zr15   O22       2.72313  1_556   S
    N0     O22       7.11173  1_545   S
    Zr15   O23       2.72300      .   S
    N1     O23       7.11174      .   S
    Zr15   O24       2.35402      .   S
    N3     O24       4.64977      .   S
    Zr15   O25       2.72436      .   S
    N0     O25       7.11129  1_545   S
