# CIF file generated by openbabel 2.4.90, see http://openbabel.sf.net
data_I
_chemical_name_common 'VESTA_phase_1'
_cell_length_a 17.315
_cell_length_b 19.3
_cell_length_c 22.368
_cell_angle_alpha 90
_cell_angle_beta 90.002
_cell_angle_gamma 94.969
_space_group_name_H-M_alt 'P 1'
_space_group_name_Hall 'P 1'
loop_
    _symmetry_equiv_pos_as_xyz
    x,y,z
loop_
    _atom_site_label
    _atom_site_type_symbol
    _atom_site_fract_x
    _atom_site_fract_y
    _atom_site_fract_z
    _atom_site_occupancy
    Cd0     Cd   0.34496   0.01207   0.44376   1.000
    Cd1     Cd   0.84496   0.01207   0.44376   1.000
    Cd2     Cd   0.15505   0.48790   0.94376   1.000
    Cd3     Cd   0.65505   0.48791   0.94376   1.000
    Cd4     Cd   0.15504   0.98789   0.55623   1.000
    Cd5     Cd   0.65504   0.98789   0.55623   1.000
    Cd6     Cd   0.34495   0.51206   0.05623   1.000
    Cd7     Cd   0.84495   0.51206   0.05623   1.000
    H8      H    0.02578   0.15637   0.44819   1.000
    H9      H    0.52577   0.15637   0.44819   1.000
    H10     H    0.49840   0.24795   0.37245   1.000
    H11     H    0.99840   0.24794   0.37245   1.000
    H12     H    0.25517   0.14415   0.37542   1.000
    H13     H    0.75517   0.14416   0.37542   1.000
    H14     H    0.20394   0.50573   0.15140   1.000
    H15     H    0.70394   0.50573   0.15140   1.000
    H16     H    0.14785   0.43050   0.23451   1.000
    H17     H    0.64785   0.43050   0.23451   1.000
    H18     H    0.29778   0.27482   0.17732   1.000
    H19     H    0.79778   0.27482   0.17732   1.000
    H20     H    0.34717   0.35619   0.09811   1.000
    H21     H    0.84717   0.35619   0.09811   1.000
    H22     H    0.06794   0.02849   0.31139   1.000
    H23     H    0.56795   0.02849   0.31140   1.000
    H24     H    0.15661   0.07967   0.22934   1.000
    H25     H    0.65661   0.07967   0.22934   1.000
    H26     H    0.39372   0.16466   0.26455   1.000
    H27     H    0.89372   0.16466   0.26455   1.000
    H28     H    0.17841   0.32968   0.96477   1.000
    H29     H    0.67841   0.32968   0.96477   1.000
    H30     H    0.14849   0.23227   0.03640   1.000
    H31     H    0.64849   0.23227   0.03640   1.000
    H32     H    0.00889   0.36863   0.13528   1.000
    H33     H    0.50889   0.36863   0.13520   1.000
    H34     H    0.04329   0.45929   0.05976   1.000
    H35     H    0.54329   0.45929   0.05976   1.000
    H36     H    0.47426   0.34364   0.94810   1.000
    H37     H    0.97426   0.34364   0.94818   1.000
    H38     H    0.00163   0.25206   0.87243   1.000
    H39     H    0.50163   0.25206   0.87243   1.000
    H40     H    0.24485   0.35583   0.87541   1.000
    H41     H    0.74485   0.35583   0.87540   1.000
    H42     H    0.29604   0.99420   0.65140   1.000
    H43     H    0.79604   0.99421   0.65142   1.000
    H44     H    0.35214   0.06947   0.73450   1.000
    H45     H    0.85214   0.06947   0.73453   1.000
    H46     H    0.20227   0.22518   0.67700   1.000
    H47     H    0.70227   0.22517   0.67730   1.000
    H48     H    0.15287   0.14380   0.59808   1.000
    H49     H    0.65287   0.14379   0.59808   1.000
    H50     H    0.43210   0.47152   0.81135   1.000
    H51     H    0.93209   0.47152   0.81136   1.000
    H52     H    0.34343   0.42035   0.72929   1.000
    H53     H    0.84343   0.42034   0.72930   1.000
    H54     H    0.10629   0.33531   0.76455   1.000
    H55     H    0.60629   0.33531   0.76455   1.000
    H56     H    0.32166   0.17032   0.46473   1.000
    H57     H    0.82166   0.17033   0.46473   1.000
    H58     H    0.35157   0.26773   0.53636   1.000
    H59     H    0.85157   0.26773   0.53636   1.000
    H60     H    0.49108   0.13133   0.63529   1.000
    H61     H    0.99108   0.13134   0.63529   1.000
    H62     H    0.45668   0.04067   0.55977   1.000
    H63     H    0.95668   0.04068   0.55977   1.000
    H64     H    0.47423   0.84360   0.55179   1.000
    H65     H    0.97423   0.84360   0.55179   1.000
    H66     H    0.00161   0.75202   0.62753   1.000
    H67     H    0.50161   0.75202   0.62753   1.000
    H68     H    0.24484   0.85581   0.62450   1.000
    H69     H    0.74484   0.85581   0.62456   1.000
    H70     H    0.29607   0.49423   0.84859   1.000
    H71     H    0.79606   0.49423   0.84850   1.000
    H72     H    0.35215   0.56946   0.76540   1.000
    H73     H    0.85215   0.56946   0.76540   1.000
    H74     H    0.20224   0.72515   0.82260   1.000
    H75     H    0.70224   0.72515   0.82260   1.000
    H76     H    0.15284   0.64378   0.90188   1.000
    H77     H    0.65284   0.64378   0.90188   1.000
    H78     H    0.43207   0.97148   0.68859   1.000
    H79     H    0.93206   0.97148   0.68859   1.000
    H80     H    0.34340   0.92031   0.77065   1.000
    H81     H    0.84340   0.92031   0.77065   1.000
    H82     H    0.10628   0.83530   0.73543   1.000
    H83     H    0.60628   0.83530   0.73543   1.000
    H84     H    0.32161   0.67029   0.03522   1.000
    H85     H    0.82161   0.67030   0.03522   1.000
    H86     H    0.35152   0.76770   0.96359   1.000
    H87     H    0.85153   0.76770   0.96359   1.000
    H88     H    0.49111   0.63133   0.86471   1.000
    H89     H    0.99111   0.63133   0.86471   1.000
    H90     H    0.45671   0.54067   0.94022   1.000
    H91     H    0.95671   0.54067   0.94022   1.000
    H92     H    0.02574   0.65632   0.05181   1.000
    H93     H    0.52574   0.65632   0.05181   1.000
    H94     H    0.49837   0.74790   0.12755   1.000
    H95     H    0.99837   0.74789   0.12756   1.000
    H96     H    0.25516   0.64413   0.12457   1.000
    H97     H    0.75516   0.64414   0.12457   1.000
    H98     H    0.20397   0.00576   0.34855   1.000
    H99     H    0.70398   0.00577   0.34855   1.000
    H100    H    0.14787   0.93049   0.26544   1.000
    H101    H    0.64787   0.93050   0.26545   1.000
    H102    H    0.29772   0.77478   0.32270   1.000
    H103    H    0.79772   0.77478   0.32270   1.000
    H104    H    0.34712   0.85616   0.40191   1.000
    H105    H    0.84713   0.85617   0.40191   1.000
    H106    H    0.06790   0.52844   0.18864   1.000
    H107    H    0.56791   0.52845   0.18862   1.000
    H108    H    0.15657   0.57961   0.27070   1.000
    H109    H    0.65657   0.57962   0.27069   1.000
    H110    H    0.39371   0.66465   0.23543   1.000
    H111    H    0.89371   0.66465   0.23544   1.000
    H112    H    0.17832   0.82963   0.53520   1.000
    H113    H    0.67834   0.82964   0.53526   1.000
    H114    H    0.14841   0.73222   0.46364   1.000
    H115    H    0.64843   0.73223   0.46363   1.000
    H116    H    0.00893   0.86863   0.36469   1.000
    H117    H    0.50892   0.86863   0.36470   1.000
    H118    H    0.04333   0.95929   0.44020   1.000
    H119    H    0.54332   0.95929   0.44022   1.000
    C120    C    0.15405   0.08972   0.46211   1.000
    C121    C    0.65405   0.08972   0.46211   1.000
    C122    C    0.14121   0.14575   0.41707   1.000
    C123    C    0.64121   0.14576   0.41707   1.000
    C124    C    0.06975   0.17537   0.41601   1.000
    C125    C    0.56975   0.17538   0.41601   1.000
    C126    C    0.05451   0.22647   0.37427   1.000
    C127    C    0.55451   0.22648   0.37427   1.000
    C128    C    0.11356   0.24835   0.33467   1.000
    C129    C    0.61356   0.24836   0.33467   1.000
    C130    C    0.18504   0.21975   0.33625   1.000
    C131    C    0.68504   0.21975   0.33625   1.000
    C132    C    0.20014   0.16768   0.37630   1.000
    C133    C    0.70014   0.16768   0.37630   1.000
    C134    C    0.23625   0.25349   0.28990   1.000
    C135    C    0.73625   0.25350   0.28990   1.000
    C136    C    0.11488   0.30031   0.28575   1.000
    C137    C    0.61488   0.30031   0.28575   1.000
    C138    C    0.22276   0.45405   0.15912   1.000
    C139    C    0.72276   0.45406   0.15912   1.000
    C140    C    0.19199   0.41230   0.20535   1.000
    C141    C    0.69199   0.41230   0.20535   1.000
    C142    C    0.21874   0.34628   0.21300   1.000
    C143    C    0.71874   0.34628   0.21300   1.000
    C144    C    0.27476   0.32505   0.17352   1.000
    C145    C    0.77476   0.32506   0.17352   1.000
    C146    C    0.30263   0.37067   0.12898   1.000
    C147    C    0.80263   0.37067   0.12898   1.000
    C148    C    0.42976   0.06488   0.34496   1.000
    C149    C    0.92976   0.06488   0.34496   1.000
    C150    C    0.47706   0.09320   0.29219   1.000
    C151    C    0.97706   0.09320   0.29219   1.000
    C152    C    0.05024   0.06907   0.28187   1.000
    C153    C    0.55025   0.06908   0.28187   1.000
    C154    C    0.09913   0.09709   0.23666   1.000
    C155    C    0.59914   0.09709   0.23666   1.000
    C156    C    0.07220   0.14946   0.20166   1.000
    C157    C    0.57221   0.14947   0.20166   1.000
    C158    C    0.49858   0.17248   0.21061   1.000
    C159    C    0.99858   0.17248   0.21061   1.000
    C160    C    0.44984   0.14528   0.25576   1.000
    C161    C    0.94984   0.14528   0.25570   1.000
    C162    C    0.11212   0.19053   0.15315   1.000
    C163    C    0.61212   0.19053   0.15315   1.000
    C164    C    0.48728   0.22834   0.16677   1.000
    C165    C    0.98728   0.22834   0.16670   1.000
    C166    C    0.14090   0.33590   0.00000   1.000
    C167    C    0.64090   0.33590   0.00000   1.000
    C168    C    0.12388   0.28159   0.04285   1.000
    C169    C    0.62388   0.28159   0.04285   1.000
    C170    C    0.07591   0.29243   0.09193   1.000
    C171    C    0.57591   0.29243   0.09193   1.000
    C172    C    0.04607   0.35727   0.09807   1.000
    C173    C    0.54607   0.35727   0.09807   1.000
    C174    C    0.06582   0.40854   0.05576   1.000
    C175    C    0.56582   0.40853   0.05576   1.000
    C176    C    0.34597   0.41026   0.96210   1.000
    C177    C    0.84597   0.41026   0.96210   1.000
    C178    C    0.35882   0.35423   0.91706   1.000
    C179    C    0.85882   0.35423   0.91706   1.000
    C180    C    0.43029   0.32462   0.91599   1.000
    C181    C    0.93029   0.32462   0.91599   1.000
    C182    C    0.44552   0.27353   0.87420   1.000
    C183    C    0.94552   0.27353   0.87426   1.000
    C184    C    0.38647   0.25164   0.83466   1.000
    C185    C    0.88647   0.25164   0.83466   1.000
    C186    C    0.31498   0.28024   0.83624   1.000
    C187    C    0.81498   0.28024   0.83624   1.000
    C188    C    0.29988   0.33231   0.87629   1.000
    C189    C    0.79988   0.33231   0.87629   1.000
    C190    C    0.26377   0.24649   0.78989   1.000
    C191    C    0.76377   0.24649   0.78989   1.000
    C192    C    0.38514   0.19968   0.78575   1.000
    C193    C    0.88515   0.19968   0.78575   1.000
    C194    C    0.27724   0.04591   0.65913   1.000
    C195    C    0.77724   0.04591   0.65913   1.000
    C196    C    0.30801   0.08767   0.70537   1.000
    C197    C    0.80801   0.08767   0.70530   1.000
    C198    C    0.28127   0.15370   0.71304   1.000
    C199    C    0.78128   0.15370   0.71304   1.000
    C200    C    0.22527   0.17493   0.67350   1.000
    C201    C    0.72527   0.17493   0.67350   1.000
    C202    C    0.19740   0.12931   0.62896   1.000
    C203    C    0.69740   0.12931   0.62897   1.000
    C204    C    0.07026   0.43511   0.84495   1.000
    C205    C    0.57026   0.43511   0.84495   1.000
    C206    C    0.02296   0.40679   0.79218   1.000
    C207    C    0.52297   0.40679   0.79218   1.000
    C208    C    0.44979   0.43093   0.78184   1.000
    C209    C    0.94979   0.43093   0.78184   1.000
    C210    C    0.40090   0.40291   0.73662   1.000
    C211    C    0.90089   0.40291   0.73663   1.000
    C212    C    0.42782   0.35053   0.70164   1.000
    C213    C    0.92782   0.35053   0.70164   1.000
    C214    C    0.00144   0.32750   0.71060   1.000
    C215    C    0.50144   0.32750   0.71060   1.000
    C216    C    0.05018   0.35470   0.75576   1.000
    C217    C    0.55018   0.35470   0.75576   1.000
    C218    C    0.38790   0.30946   0.65313   1.000
    C219    C    0.88790   0.30946   0.65313   1.000
    C220    C    0.01273   0.27163   0.66676   1.000
    C221    C    0.51274   0.27163   0.66676   1.000
    C222    C    0.35915   0.16409   0.50307   1.000
    C223    C    0.85915   0.16409   0.50307   1.000
    C224    C    0.37616   0.21840   0.54283   1.000
    C225    C    0.87616   0.21840   0.54283   1.000
    C226    C    0.42411   0.20755   0.59192   1.000
    C227    C    0.92411   0.20755   0.59190   1.000
    C228    C    0.45392   0.14270   0.59807   1.000
    C229    C    0.95392   0.14271   0.59807   1.000
    C230    C    0.43417   0.09144   0.55576   1.000
    C231    C    0.93418   0.09144   0.55576   1.000
    C232    C    0.34596   0.91024   0.53788   1.000
    C233    C    0.84596   0.91024   0.53788   1.000
    C234    C    0.35880   0.85421   0.58291   1.000
    C235    C    0.85880   0.85421   0.58291   1.000
    C236    C    0.43026   0.82459   0.58398   1.000
    C237    C    0.93027   0.82459   0.58398   1.000
    C238    C    0.44550   0.77349   0.62571   1.000
    C239    C    0.94550   0.77349   0.62571   1.000
    C240    C    0.38645   0.75161   0.66531   1.000
    C241    C    0.88645   0.75161   0.66531   1.000
    C242    C    0.31497   0.78021   0.66374   1.000
    C243    C    0.81497   0.78021   0.66374   1.000
    C244    C    0.29987   0.83228   0.62369   1.000
    C245    C    0.79987   0.83228   0.62369   1.000
    C246    C    0.26376   0.74647   0.71000   1.000
    C247    C    0.76376   0.74647   0.71008   1.000
    C248    C    0.38513   0.69965   0.71423   1.000
    C249    C    0.88513   0.69965   0.71423   1.000
    C250    C    0.27724   0.54591   0.84080   1.000
    C251    C    0.77724   0.54591   0.84080   1.000
    C252    C    0.30801   0.58766   0.79463   1.000
    C253    C    0.80801   0.58766   0.79463   1.000
    C254    C    0.28126   0.65369   0.78694   1.000
    C255    C    0.78127   0.65369   0.78694   1.000
    C256    C    0.22525   0.67491   0.82647   1.000
    C257    C    0.72525   0.67491   0.82647   1.000
    C258    C    0.19738   0.62930   0.87101   1.000
    C259    C    0.69738   0.62930   0.87101   1.000
    C260    C    0.07025   0.93509   0.65503   1.000
    C261    C    0.57025   0.93509   0.65503   1.000
    C262    C    0.02295   0.90677   0.70779   1.000
    C263    C    0.52295   0.90677   0.70779   1.000
    C264    C    0.44976   0.93090   0.71812   1.000
    C265    C    0.94976   0.93090   0.71812   1.000
    C266    C    0.40087   0.90288   0.76333   1.000
    C267    C    0.90087   0.90288   0.76333   1.000
    C268    C    0.42780   0.85050   0.79832   1.000
    C269    C    0.92780   0.85050   0.79832   1.000
    C270    C    0.00143   0.82748   0.78937   1.000
    C271    C    0.50143   0.82748   0.78937   1.000
    C272    C    0.05016   0.85468   0.74422   1.000
    C273    C    0.55016   0.85468   0.74422   1.000
    C274    C    0.38789   0.80944   0.84680   1.000
    C275    C    0.88789   0.80944   0.84684   1.000
    C276    C    0.01273   0.77162   0.83320   1.000
    C277    C    0.51273   0.77162   0.83322   1.000
    C278    C    0.35911   0.66407   0.99689   1.000
    C279    C    0.85911   0.66407   0.99689   1.000
    C280    C    0.37613   0.71838   0.95713   1.000
    C281    C    0.87613   0.71838   0.95713   1.000
    C282    C    0.42410   0.70754   0.90806   1.000
    C283    C    0.92410   0.70754   0.90806   1.000
    C284    C    0.45393   0.64270   0.90192   1.000
    C285    C    0.95393   0.64270   0.90192   1.000
    C286    C    0.43418   0.59143   0.94422   1.000
    C287    C    0.93419   0.59143   0.94422   1.000
    C288    C    0.15403   0.58970   0.03788   1.000
    C289    C    0.65403   0.58970   0.03788   1.000
    C290    C    0.14118   0.64572   0.08290   1.000
    C291    C    0.64119   0.64573   0.08292   1.000
    C292    C    0.06972   0.67533   0.08400   1.000
    C293    C    0.56972   0.67534   0.08399   1.000
    C294    C    0.05448   0.72642   0.12573   1.000
    C295    C    0.55448   0.72643   0.12573   1.000
    C296    C    0.11354   0.74831   0.16533   1.000
    C297    C    0.61354   0.74832   0.16533   1.000
    C298    C    0.18502   0.71972   0.16375   1.000
    C299    C    0.68502   0.71972   0.16375   1.000
    C300    C    0.20013   0.66765   0.12370   1.000
    C301    C    0.70013   0.66766   0.12370   1.000
    C302    C    0.23624   0.75347   0.21009   1.000
    C303    C    0.73623   0.75347   0.21009   1.000
    C304    C    0.11485   0.80027   0.21424   1.000
    C305    C    0.61486   0.80028   0.21424   1.000
    C306    C    0.22277   0.95405   0.34085   1.000
    C307    C    0.72277   0.95405   0.34085   1.000
    C308    C    0.19200   0.91229   0.29462   1.000
    C309    C    0.69200   0.91230   0.29462   1.000
    C310    C    0.21873   0.84626   0.28695   1.000
    C311    C    0.71873   0.84626   0.28694   1.000
    C312    C    0.27473   0.82503   0.32649   1.000
    C313    C    0.77473   0.82503   0.32649   1.000
    C314    C    0.30259   0.87065   0.37100   1.000
    C315    C    0.80260   0.87065   0.37102   1.000
    C316    C    0.42974   0.56485   0.15504   1.000
    C317    C    0.92974   0.56486   0.15500   1.000
    C318    C    0.47704   0.59318   0.20781   1.000
    C319    C    0.97703   0.59317   0.20781   1.000
    C320    C    0.05021   0.56903   0.21815   1.000
    C321    C    0.55022   0.56904   0.21815   1.000
    C322    C    0.09910   0.59704   0.26337   1.000
    C323    C    0.59911   0.59706   0.26330   1.000
    C324    C    0.07218   0.64943   0.29835   1.000
    C325    C    0.57218   0.64944   0.29834   1.000
    C326    C    0.49856   0.67247   0.28939   1.000
    C327    C    0.99856   0.67246   0.28939   1.000
    C328    C    0.44982   0.64526   0.24423   1.000
    C329    C    0.94982   0.64526   0.24423   1.000
    C330    C    0.11210   0.69051   0.34685   1.000
    C331    C    0.61210   0.69050   0.34686   1.000
    C332    C    0.48727   0.72834   0.33322   1.000
    C333    C    0.98726   0.72833   0.33323   1.000
    C334    C    0.14084   0.83587   0.49692   1.000
    C335    C    0.64085   0.83587   0.49691   1.000
    C336    C    0.12383   0.78156   0.45717   1.000
    C337    C    0.62384   0.78156   0.45716   1.000
    C338    C    0.07589   0.79241   0.40807   1.000
    C339    C    0.57589   0.79241   0.40807   1.000
    C340    C    0.04608   0.85726   0.40192   1.000
    C341    C    0.54608   0.85726   0.40192   1.000
    C342    C    0.06583   0.90852   0.44420   1.000
    C343    C    0.56583   0.90852   0.44423   1.000
    N344    N    0.27741   0.43421   0.12140   1.000
    N345    N    0.77741   0.43421   0.12140   1.000
    N346    N    0.19076   0.30194   0.26003   1.000
    N347    N    0.69076   0.30195   0.26003   1.000
    N348    N    0.05929   0.23943   0.13470   1.000
    N349    N    0.55929   0.23943   0.13470   1.000
    N350    N    0.11304   0.39869   0.00913   1.000
    N351    N    0.61304   0.39869   0.00913   1.000
    N352    N    0.22260   0.06577   0.62140   1.000
    N353    N    0.72261   0.06577   0.62140   1.000
    N354    N    0.30926   0.19804   0.76003   1.000
    N355    N    0.80926   0.19804   0.76003   1.000
    N356    N    0.44072   0.26055   0.63469   1.000
    N357    N    0.94072   0.26055   0.63469   1.000
    N358    N    0.38697   0.10129   0.50911   1.000
    N359    N    0.88698   0.10129   0.50911   1.000
    N360    N    0.22260   0.56576   0.87859   1.000
    N361    N    0.72260   0.56576   0.87859   1.000
    N362    N    0.30925   0.69802   0.73995   1.000
    N363    N    0.80925   0.69802   0.73995   1.000
    N364    N    0.44071   0.76054   0.86529   1.000
    N365    N    0.94071   0.76054   0.86529   1.000
    N366    N    0.38697   0.60128   0.99086   1.000
    N367    N    0.88697   0.60128   0.99086   1.000
    N368    N    0.27740   0.93420   0.37859   1.000
    N369    N    0.77740   0.93420   0.37850   1.000
    N370    N    0.19074   0.80191   0.23996   1.000
    N371    N    0.69075   0.80192   0.23996   1.000
    N372    N    0.05928   0.73941   0.36530   1.000
    N373    N    0.55928   0.73941   0.36530   1.000
    N374    N    0.11302   0.89867   0.49088   1.000
    N375    N    0.61303   0.89867   0.49087   1.000
    O376    O    0.21435   0.05695   0.45788   1.000
    O377    O    0.71435   0.05695   0.45788   1.000
    O378    O    0.10286   0.07779   0.50259   1.000
    O379    O    0.60286   0.07779   0.50259   1.000
    O380    O    0.06316   0.33440   0.26841   1.000
    O381    O    0.56316   0.33441   0.26841   1.000
    O382    O    0.30348   0.24491   0.27866   1.000
    O383    O    0.80348   0.24491   0.27866   1.000
    O384    O    0.36683   0.09158   0.35694   1.000
    O385    O    0.86682   0.09158   0.35690   1.000
    O386    O    0.45630   0.01657   0.37550   1.000
    O387    O    0.95630   0.01657   0.37550   1.000
    O388    O    0.43007   0.25865   0.15639   1.000
    O389    O    0.93007   0.25866   0.15640   1.000
    O390    O    0.17685   0.18609   0.13270   1.000
    O391    O    0.67686   0.18609   0.13279   1.000
    O392    O    0.28566   0.44302   0.95788   1.000
    O393    O    0.78566   0.44302   0.95788   1.000
    O394    O    0.39715   0.42220   0.00259   1.000
    O395    O    0.89715   0.42220   0.00259   1.000
    O396    O    0.43686   0.16558   0.76840   1.000
    O397    O    0.93686   0.16558   0.76840   1.000
    O398    O    0.19653   0.25506   0.77866   1.000
    O399    O    0.69653   0.25506   0.77866   1.000
    O400    O    0.13318   0.40840   0.85694   1.000
    O401    O    0.63319   0.40840   0.85690   1.000
    O402    O    0.04371   0.48341   0.87549   1.000
    O403    O    0.54371   0.48341   0.87549   1.000
    O404    O    0.06994   0.24133   0.65639   1.000
    O405    O    0.56994   0.24132   0.65639   1.000
    O406    O    0.32316   0.31389   0.63278   1.000
    O407    O    0.82315   0.31389   0.63278   1.000
    O408    O    0.28565   0.94300   0.54210   1.000
    O409    O    0.78565   0.94300   0.54210   1.000
    O410    O    0.39714   0.92218   0.49740   1.000
    O411    O    0.89715   0.92218   0.49740   1.000
    O412    O    0.43684   0.66555   0.73157   1.000
    O413    O    0.93685   0.66555   0.73157   1.000
    O414    O    0.19652   0.75506   0.72132   1.000
    O415    O    0.69652   0.75506   0.72132   1.000
    O416    O    0.13318   0.90839   0.64305   1.000
    O417    O    0.63318   0.90839   0.64305   1.000
    O418    O    0.04370   0.98339   0.62440   1.000
    O419    O    0.54370   0.98339   0.62440   1.000
    O420    O    0.06993   0.74132   0.84359   1.000
    O421    O    0.56993   0.74131   0.84359   1.000
    O422    O    0.32315   0.81388   0.86720   1.000
    O423    O    0.82315   0.81388   0.86720   1.000
    O424    O    0.21434   0.55694   0.04210   1.000
    O425    O    0.71434   0.55695   0.04210   1.000
    O426    O    0.10286   0.57777   0.99739   1.000
    O427    O    0.60286   0.57777   0.99739   1.000
    O428    O    0.06314   0.83437   0.23158   1.000
    O429    O    0.56314   0.83438   0.23158   1.000
    O430    O    0.30347   0.74490   0.22133   1.000
    O431    O    0.80348   0.74490   0.22133   1.000
    O432    O    0.36682   0.59157   0.14304   1.000
    O433    O    0.86682   0.59157   0.14305   1.000
    O434    O    0.45630   0.51657   0.12449   1.000
    O435    O    0.95629   0.51656   0.12449   1.000
    O436    O    0.43006   0.75864   0.34360   1.000
    O437    O    0.93006   0.75865   0.34359   1.000
    O438    O    0.17685   0.68608   0.36721   1.000
    O439    O    0.67685   0.68608   0.36720   1.000
loop_
    _geom_bond_atom_site_label_1
    _geom_bond_atom_site_label_2
    _geom_bond_distance
    _geom_bond_site_symmetry_2
    _ccdc_geom_bond_type
    C167   N351      1.35806      .   S
    C167   C169      1.43199      .   S
    C167   H29       1.03476  1_554   S
    C166   N350      1.35804      .   S
    C166   C168      1.43198      .   S
    C166   H28       1.03476  1_554   S
    O394   Cd6       2.35287      .   S
    O394   C176      1.27403  1_554   S
    O395   Cd7       2.35289      .   S
    O395   C177      1.27404  1_554   S
    N351   C175      1.34891      .   S
    N351   Cd3       2.32703  1_554   S
    N350   C174      1.34890      .   S
    N350   Cd2       2.32702  1_554   S
    H84    C278      1.08845  1_554   S
    H85    C279      1.08846  1_554   S
    H31    C169      1.08577      .   S
    H30    C168      1.08576      .   S
    C288   O424      1.27021      .   S
    C288   C290      1.50814      .   S
    C288   O426      1.27398  1_554   S
    C289   O425      1.27021      .   S
    C289   C291      1.50848      .   S
    C289   O427      1.27401  1_554   S
    O425   Cd7       2.51081      .   S
    O424   Cd6       2.51078      .   S
    C169   C171      1.40328      .   S
    C168   C170      1.40327      .   S
    H92    C292      1.08829      .   S
    H93    C293      1.08817      .   S
    C174   H34       1.08902      .   S
    C174   C172      1.39033      .   S
    C175   H35       1.08904      .   S
    C175   C173      1.39034      .   S
    Cd6    N344      2.33368      .   S
    Cd6    O434      2.45488      .   S
    Cd6    O432      2.48357      .   S
    Cd6    N366      2.32706  1_554   S
    Cd7    N345      2.33367      .   S
    Cd7    O435      2.45480      .   S
    Cd7    O433      2.48364      .   S
    Cd7    N367      2.32704  1_554   S
    C290   C292      1.40747      .   S
    C290   C300      1.40666      .   S
    C291   C293      1.40745      .   S
    C291   C301      1.40635      .   S
    C293   C295      1.39957      .   S
    C292   C294      1.39942      .   S
    C171   C173      1.40132      .   S
    C171   N349      1.41186      .   S
    C170   C172      1.40131      .   S
    C170   N348      1.41186      .   S
    C173   H33       1.08480      .   S
    C172   H32       1.08616      .   S
    H20    C146      1.08958      .   S
    H21    C147      1.08958      .   S
    N345   C147      1.34755      .   S
    N345   C139      1.34789      .   S
    N344   C146      1.34757      .   S
    N344   C138      1.34789      .   S
    C300   H96       1.09056      .   S
    C300   C298      1.38787      .   S
    C301   H97       1.09055      .   S
    C301   C299      1.38786      .   S
    O434   C316      1.27322      .   S
    O435   C317      1.27284      .   S
    C294   H95       1.08945  1_455   S
    C294   C296      1.39060      .   S
    C295   H94       1.08946      .   S
    C295   C297      1.39061      .   S
    C146   C144      1.38812      .   S
    C147   C145      1.38813      .   S
    O390   C162      1.22052      .   S
    O391   C163      1.21981      .   S
    N349   C163      1.43077      .   S
    N349   C164      1.43842      .   S
    N348   C162      1.43077      .   S
    N348   C165      1.43765  1_455   S
    O432   C316      1.27367      .   S
    O433   C317      1.27346      .   S
    H15    C139      1.08954      .   S
    H14    C138      1.08952      .   S
    C162   C156      1.47932      .   S
    C163   C157      1.47927      .   S
    C317   C319      1.51227      .   S
    C316   C318      1.51167      .   S
    O388   C164      1.21560      .   S
    O389   C165      1.21528      .   S
    C139   C141      1.38859      .   S
    C138   C140      1.38860      .   S
    C298   C296      1.39865      .   S
    C298   C302      1.47820      .   S
    C299   C297      1.39867      .   S
    C299   C303      1.47816      .   S
    C296   C304      1.48293      .   S
    C297   C305      1.48296      .   S
    C165   C159      1.48380      .   S
    C164   C158      1.48278      .   S
    C145   H19       1.08306      .   S
    C145   C143      1.39907      .   S
    C144   H18       1.08306      .   S
    C144   C142      1.39907      .   S
    H107   C321      1.08873      .   S
    H106   C320      1.08855      .   S
    C157   C158      1.40030      .   S
    C157   C155      1.39061      .   S
    C156   C159      1.40026  1_455   S
    C156   C154      1.39064      .   S
    C141   C143      1.40347      .   S
    C141   H17       1.08610      .   S
    C140   C142      1.40347      .   S
    C140   H16       1.08610      .   S
    C318   C321      1.40652      .   S
    C318   C328      1.40653      .   S
    C319   C320      1.40649  1_655   S
    C319   C329      1.40654      .   S
    C302   O430      1.21631      .   S
    C302   N370      1.43829      .   S
    C303   O431      1.21632      .   S
    C303   N371      1.43832      .   S
    C158   C160      1.38959      .   S
    C159   C161      1.38861      .   S
    C143   N347      1.41482      .   S
    C142   N346      1.41484      .   S
    C305   O429      1.21960      .   S
    C305   N371      1.43226      .   S
    C304   O428      1.21961      .   S
    C304   N370      1.43226      .   S
    C321   C323      1.39634      .   S
    C320   C322      1.39738      .   S
    H25    C155      1.09003      .   S
    H24    C154      1.09002      .   S
    H110   C328      1.08896      .   S
    H111   C329      1.08894      .   S
    C154   C152      1.39726      .   S
    C155   C153      1.39729      .   S
    N371   C311      1.41403      .   S
    N370   C310      1.41421      .   S
    C329   C327      1.38968      .   S
    C328   C326      1.38972      .   S
    C161   H27       1.08921      .   S
    C161   C151      1.40734      .   S
    C160   H26       1.08895      .   S
    C160   C150      1.40656      .   S
    N346   C136      1.43225      .   S
    N346   C134      1.43829      .   S
    N347   C137      1.43225      .   S
    N347   C135      1.43830      .   S
    C323   H109      1.09022      .   S
    C323   C325      1.39123      .   S
    C322   H108      1.09003      .   S
    C322   C324      1.39054      .   S
    H100   C308      1.08616      .   S
    H101   C309      1.08603      .   S
    O380   C136      1.21962      .   S
    O381   C137      1.21961      .   S
    O382   C134      1.21628      .   S
    O383   C135      1.21627      .   S
    C153   C150      1.40649      .   S
    C153   H23       1.08869      .   S
    C152   C151      1.40649  1_455   S
    C152   H22       1.08859      .   S
    C136   C128      1.48300      .   S
    C137   C129      1.48303      .   S
    C311   C309      1.40359      .   S
    C311   C313      1.39982      .   S
    C310   C308      1.40356      .   S
    C310   C312      1.39967      .   S
    C327   C324      1.40027  1_655   S
    C327   C333      1.48288      .   S
    C326   C325      1.40028      .   S
    C326   C332      1.48279      .   S
    C135   C131      1.47828      .   S
    C134   C130      1.47829      .   S
    C151   C149      1.51174      .   S
    C150   C148      1.51178      .   S
    C308   C306      1.38864      .   S
    C309   C307      1.38862      .   S
    C325   C331      1.47937      .   S
    C324   C330      1.47923      .   S
    H103   C313      1.08306      .   S
    H102   C312      1.08306      .   S
    C313   C315      1.38798      .   S
    C312   C314      1.38768      .   S
    C332   O436      1.21556      .   S
    C332   N373      1.43840      .   S
    C333   O437      1.21553      .   S
    C333   N372      1.43836  1_655   S
    C128   C130      1.39866      .   S
    C128   C126      1.39055      .   S
    C129   C131      1.39865      .   S
    C129   C127      1.39056      .   S
    C130   C132      1.38792      .   S
    C131   C133      1.38792      .   S
    C306   H98       1.08992  1_565   S
    C306   N368      1.34793      .   S
    C307   H99       1.08992  1_565   S
    C307   N369      1.34669      .   S
    C149   O385      1.27346      .   S
    C149   O387      1.27323      .   S
    C148   O384      1.27364      .   S
    C148   O386      1.27320      .   S
    C330   N372      1.43078      .   S
    C330   O438      1.21989      .   S
    C331   N373      1.43075      .   S
    C331   O439      1.21982      .   S
    O385   Cd1       2.48441      .   S
    O384   Cd0       2.48375      .   S
    H116   C340      1.08627      .   S
    H117   C341      1.08614      .   S
    N372   C338      1.41186      .   S
    N373   C339      1.41185      .   S
    C314   N368      1.34766      .   S
    C314   H104      1.08995      .   S
    C315   N369      1.34734      .   S
    C315   H105      1.08967      .   S
    H11    C126      1.08944  1_655   S
    H10    C127      1.08946      .   S
    C126   C124      1.39962      .   S
    C127   C125      1.39961      .   S
    H12    C132      1.09056      .   S
    H13    C133      1.09056      .   S
    O387   Cd1       2.45487      .   S
    O386   Cd0       2.45490      .   S
    C132   C122      1.40620      .   S
    C133   C123      1.40618      .   S
    N369   Cd1       2.33525  1_565   S
    N368   Cd0       2.33403  1_565   S
    C340   C338      1.40128      .   S
    C340   C342      1.38984      .   S
    C341   C339      1.40129      .   S
    C341   C343      1.39032      .   S
    C339   C337      1.40317      .   S
    C338   C336      1.40328      .   S
    C124   C122      1.40745      .   S
    C124   H8        1.08811      .   S
    C125   C123      1.40746      .   S
    C125   H9        1.08813      .   S
    C122   C120      1.50858      .   S
    C123   C121      1.50859      .   S
    H118   C342      1.08901      .   S
    H119   C343      1.08902      .   S
    Cd1    O377      2.51081      .   S
    Cd1    O411      2.35318  1_545   S
    Cd1    N359      2.32683      .   S
    Cd0    O376      2.51080      .   S
    Cd0    O410      2.35316  1_545   S
    Cd0    N358      2.32681      .   S
    C342   N374      1.34947      .   S
    C343   N375      1.34883      .   S
    C337   H115      1.08578      .   S
    C337   C335      1.38648      .   S
    C336   H114      1.08578      .   S
    C336   C334      1.38648      .   S
    O377   C121      1.27020      .   S
    O376   C120      1.27021      .   S
    C120   O378      1.27399      .   S
    C121   O379      1.27401      .   S
    H57    C223      1.08843      .   S
    H56    C222      1.08842      .   S
    N375   C335      1.34929      .   S
    N375   Cd5       2.32697      .   S
    N374   C334      1.34927      .   S
    N374   Cd4       2.32688      .   S
    C335   H113      1.08859      .   S
    C334   H112      1.08731      .   S
    O411   C233      1.27403      .   S
    O410   C232      1.27403      .   S
    O379   Cd5       2.35322  1_545   S
    O378   Cd4       2.35322  1_545   S
    C222   N358      1.34929      .   S
    C222   C224      1.38662      .   S
    C223   N359      1.34929      .   S
    C223   C225      1.38662      .   S
    N359   C231      1.34902      .   S
    N358   C230      1.34901      .   S
    H59    C225      1.08578      .   S
    H58    C224      1.08579      .   S
    C232   O408      1.27019      .   S
    C232   C234      1.50843      .   S
    C233   O409      1.27019      .   S
    C233   C235      1.50843      .   S
    O409   Cd5       2.51083      .   S
    O408   Cd4       2.51082      .   S
    C224   C226      1.40318      .   S
    C225   C227      1.40283      .   S
    H65    C237      1.08826      .   S
    H64    C236      1.08827      .   S
    C231   H63       1.08903      .   S
    C231   C229      1.39030      .   S
    C230   H62       1.08905      .   S
    C230   C228      1.39030      .   S
    Cd5    N353      2.33400  1_565   S
    Cd5    O419      2.45368      .   S
    Cd5    O417      2.48368      .   S
    Cd4    N352      2.33402  1_565   S
    Cd4    O418      2.45368      .   S
    Cd4    O416      2.48367      .   S
    C234   C236      1.40746      .   S
    C234   C244      1.40632      .   S
    C235   C237      1.40747      .   S
    C235   C245      1.40633      .   S
    C236   C238      1.39947      .   S
    C237   C239      1.39947      .   S
    C227   C229      1.40134      .   S
    C227   N357      1.41217      .   S
    C226   C228      1.40128      .   S
    C226   N356      1.41186      .   S
    C228   H60       1.08614      .   S
    C229   H61       1.08616      .   S
    H49    C203      1.08973      .   S
    H48    C202      1.08956      .   S
    N352   C202      1.34754      .   S
    N352   C194      1.34783      .   S
    N353   C203      1.34756      .   S
    N353   C195      1.34785      .   S
    C245   H69       1.09056      .   S
    C245   C243      1.38792      .   S
    C244   H68       1.09053      .   S
    C244   C242      1.38791      .   S
    O419   C261      1.27429      .   S
    O418   C260      1.27429      .   S
    C239   H66       1.08945  1_655   S
    C239   C241      1.39055      .   S
    C238   H67       1.08945      .   S
    C238   C240      1.39055      .   S
    C202   C200      1.38813      .   S
    C203   C201      1.38797      .   S
    O406   C218      1.21978      .   S
    O407   C219      1.21983      .   S
    N357   C219      1.43073      .   S
    N357   C220      1.43833  1_655   S
    N356   C218      1.43075      .   S
    N356   C221      1.43837      .   S
    O416   C260      1.27363      .   S
    O417   C261      1.27364      .   S
    H42    C194      1.09002  1_565   S
    H43    C195      1.08995  1_565   S
    C218   C212      1.47934      .   S
    C219   C213      1.47929      .   S
    C260   C262      1.51160      .   S
    C261   C263      1.51160      .   S
    O404   C220      1.21554      .   S
    O405   C221      1.21557      .   S
    C195   C197      1.38760      .   S
    C194   C196      1.38877      .   S
    C243   C241      1.39866      .   S
    C243   C247      1.47813      .   S
    C242   C240      1.39866      .   S
    C242   C246      1.47686      .   S
    C241   C249      1.48305      .   S
    C240   C248      1.48308      .   S
    C221   C215      1.48286      .   S
    C220   C214      1.48289      .   S
    C200   H46       1.08257      .   S
    C200   C198      1.39972      .   S
    C201   H47       1.08307      .   S
    C201   C199      1.39973      .   S
    H79    C265      1.08870      .   S
    H78    C264      1.08872      .   S
    C212   C215      1.40030      .   S
    C212   C210      1.39053      .   S
    C213   C214      1.40028  1_655   S
    C213   C211      1.39063      .   S
    C197   C199      1.40375      .   S
    C197   H45       1.08688      .   S
    C196   C198      1.40357      .   S
    C196   H44       1.08552      .   S
    C263   C264      1.40652      .   S
    C263   C273      1.40659      .   S
    C262   C265      1.40650  1_455   S
    C262   C272      1.40659      .   S
    C246   O414      1.21668      .   S
    C246   N362      1.43914      .   S
    C247   O415      1.21628      .   S
    C247   N363      1.43829      .   S
    C215   C217      1.38971      .   S
    C214   C216      1.38971      .   S
    C198   N354      1.41419      .   S
    C199   N355      1.41418      .   S
    C249   O413      1.21964      .   S
    C249   N363      1.43226      .   S
    C248   O412      1.21961      .   S
    C248   N362      1.43224      .   S
    C264   C266      1.39728      .   S
    C265   C267      1.39730      .   S
    H52    C210      1.09001      .   S
    H53    C211      1.09002      .   S
    H83    C273      1.08896      .   S
    H82    C272      1.08895      .   S
    C210   C208      1.39742      .   S
    C211   C209      1.39728      .   S
    N362   C254      1.41415      .   S
    N363   C255      1.41416      .   S
    C273   C271      1.38959      .   S
    C272   C270      1.38959      .   S
    C217   H55       1.08892      .   S
    C217   C207      1.40657      .   S
    C216   H54       1.08892      .   S
    C216   C206      1.40653      .   S
    N354   C192      1.43225      .   S
    N354   C190      1.43823      .   S
    N355   C193      1.43226      .   S
    N355   C191      1.43821      .   S
    C267   H81       1.09001      .   S
    C267   C269      1.39051      .   S
    C266   H80       1.09003      .   S
    C266   C268      1.39052      .   S
    H73    C253      1.08702      .   S
    H72    C252      1.08702      .   S
    O396   C192      1.21967      .   S
    O397   C193      1.21969      .   S
    O399   C191      1.21626      .   S
    O398   C190      1.21628      .   S
    C209   C206      1.40651  1_655   S
    C209   H51       1.08864      .   S
    C208   C207      1.40652      .   S
    C208   H50       1.08853      .   S
    C192   C184      1.48300      .   S
    C193   C185      1.48296      .   S
    C254   C252      1.40357      .   S
    C254   C256      1.39975      .   S
    C255   C253      1.40356      .   S
    C255   C257      1.39975      .   S
    C271   C268      1.40030      .   S
    C271   C277      1.48293      .   S
    C270   C269      1.40027  1_455   S
    C270   C276      1.48265      .   S
    C191   C187      1.47832      .   S
    C190   C186      1.47830      .   S
    C206   C204      1.51165      .   S
    C207   C205      1.51162      .   S
    C252   C250      1.38758      .   S
    C253   C251      1.38759      .   S
    C268   C274      1.47877      .   S
    C269   C275      1.47941      .   S
    H74    C256      1.08317      .   S
    H75    C257      1.08319      .   S
    C257   C259      1.38811      .   S
    C256   C258      1.38810      .   S
    C276   O420      1.21564      .   S
    C276   N365      1.43860  1_455   S
    C277   O421      1.21556      .   S
    C277   N364      1.43841      .   S
    C185   C187      1.39867      .   S
    C185   C183      1.39059      .   S
    C184   C186      1.39867      .   S
    C184   C182      1.38975      .   S
    C187   C189      1.38789      .   S
    C186   C188      1.38788      .   S
    C250   H70       1.08979      .   S
    C250   N360      1.34885      .   S
    C251   H71       1.08944      .   S
    C251   N361      1.34886      .   S
    C205   O401      1.27346      .   S
    C205   O403      1.27320      .   S
    C204   O400      1.27363      .   S
    C204   O402      1.27317      .   S
    C274   N364      1.43105      .   S
    C274   O422      1.22016      .   S
    C275   N365      1.43079      .   S
    C275   O423      1.21984      .   S
    O401   Cd3       2.48433      .   S
    O400   Cd2       2.48364      .   S
    H88    C284      1.08615      .   S
    H89    C285      1.08615      .   S
    N365   C283      1.41186      .   S
    N364   C282      1.41186      .   S
    C259   N361      1.34756      .   S
    C259   H77       1.08956      .   S
    C258   N360      1.34756      .   S
    C258   H76       1.08956      .   S
    H38    C183      1.08946  1_455   S
    H39    C182      1.08941      .   S
    C182   C180      1.40031      .   S
    C183   C181      1.39943      .   S
    H41    C189      1.09056      .   S
    H40    C188      1.09056      .   S
    O402   Cd2       2.45498      .   S
    O403   Cd3       2.45494      .   S
    C189   C179      1.40621      .   S
    C188   C178      1.40622      .   S
    N361   Cd3       2.33370      .   S
    N360   Cd2       2.33371      .   S
    C285   C283      1.40130      .   S
    C285   C287      1.39018      .   S
    C284   C282      1.40130      .   S
    C284   C286      1.39018      .   S
    C282   C280      1.40307      .   S
    C283   C281      1.40306      .   S
    C181   C179      1.40746      .   S
    C181   H37       1.08830      .   S
    C180   C178      1.40746      .   S
    C180   H36       1.08714      .   S
    C179   C177      1.50848      .   S
    C178   C176      1.50848      .   S
    H90    C286      1.08901      .   S
    H91    C287      1.08901      .   S
    Cd3    O393      2.51082      .   S
    Cd3    O427      2.35278      .   S
    Cd2    O392      2.51079      .   S
    Cd2    O426      2.35280      .   S
    C287   N367      1.34904      .   S
    C286   N366      1.34906      .   S
    C280   H86       1.08577      .   S
    C280   C278      1.38667      .   S
    C281   H87       1.08579      .   S
    C281   C279      1.38667      .   S
    O392   C176      1.27022      .   S
    O393   C177      1.27020      .   S
    N367   C279      1.34936      .   S
    N366   C278      1.34935      .   S
