# CIF file generated by openbabel 2.4.90, see http://openbabel.sf.net
data_I
_chemical_name_common ''
_cell_length_a 17.924
_cell_length_b 17.979
_cell_length_c 13.775
_cell_angle_alpha 73.331
_cell_angle_beta 71.911
_cell_angle_gamma 81.632
_space_group_name_H-M_alt 'P 1'
_space_group_name_Hall 'P 1'
loop_
    _symmetry_equiv_pos_as_xyz
    x,y,z
loop_
    _atom_site_label
    _atom_site_type_symbol
    _atom_site_fract_x
    _atom_site_fract_y
    _atom_site_fract_z
    _atom_site_occupancy
    Zn0     Zn   0.25335   0.57811   0.15176   1.000
    Zn1     Zn   0.75335   0.07812   0.15176   1.000
    Zn2     Zn   0.75335   0.57811   0.15176   1.000
    Zn3     Zn   0.19143   0.05334   0.37640   1.000
    Zn4     Zn   0.19143   0.55333   0.37640   1.000
    Zn5     Zn   0.69143   0.05334   0.37640   1.000
    Zn6     Zn   0.69142   0.55333   0.37640   1.000
    Zn7     Zn   0.25335   0.07812   0.15176   1.000
loop_
    _geom_bond_atom_site_label_1
    _geom_bond_atom_site_label_2
    _geom_bond_distance
    _geom_bond_site_symmetry_2
    _ccdc_geom_bond_type
    Zn7    Zn3       2.86810      .   S
    Zn0    Zn4       2.86810      .   S
    Zn1    Zn5       2.86810      .   S
    Zn2    Zn6       2.86810      .   S
