# CIF file generated by openbabel 2.4.90, see http://openbabel.sf.net
data_I
_chemical_name_common ''
_cell_length_a 17.924
_cell_length_b 17.979
_cell_length_c 13.775
_cell_angle_alpha 73.331
_cell_angle_beta 71.911
_cell_angle_gamma 81.632
_space_group_name_H-M_alt 'P 1'
_space_group_name_Hall 'P 1'
loop_
    _symmetry_equiv_pos_as_xyz
    x,y,z
loop_
    _atom_site_label
    _atom_site_type_symbol
    _atom_site_fract_x
    _atom_site_fract_y
    _atom_site_fract_z
    _atom_site_occupancy
    C0      C    0.25335   0.07812   0.15176   1.000
    C1      C    0.25335   0.57811   0.15176   1.000
    C2      C    0.75335   0.07812   0.15176   1.000
    C3      C    0.75335   0.57811   0.15176   1.000
    C4      C    0.19143   0.05334   0.37640   1.000
    C5      C    0.19143   0.55333   0.37640   1.000
    C6      C    0.69143   0.05334   0.37640   1.000
    C7      C    0.69142   0.55333   0.37640   1.000
    C8      C    0.43848   0.13290   0.62161   1.000
    C9      C    0.43848   0.63290   0.62161   1.000
    C10     C    0.93847   0.13290   0.62161   1.000
    C11     C    0.93847   0.63290   0.62161   1.000
    C12     C    0.04297   0.12590   0.45374   1.000
    C13     C    0.04298   0.62590   0.45374   1.000
    C14     C    0.54297   0.12590   0.45374   1.000
    C15     C    0.54297   0.62590   0.45374   1.000
    C16     C    0.26717   0.49692   0.97846   1.000
    C17     C    0.26716   0.99691   0.97846   1.000
    C18     C    0.76716   0.49692   0.97847   1.000
    C19     C    0.76716   0.99691   0.97847   1.000
    C20     C    0.36992   0.48001   0.81420   1.000
    C21     C    0.36991   0.97999   0.81420   1.000
    C22     C    0.86991   0.48000   0.81421   1.000
    C23     C    0.86990   0.97999   0.81421   1.000
    C24     C    0.50238   0.14754   0.85061   1.000
    C25     C    0.50238   0.64754   0.85061   1.000
    C26     C    0.00000   0.14754   0.85061   1.000
    C27     C    0.00000   0.64754   0.85061   1.000
    C28     C    0.39184   0.16025   0.00000   1.000
    C29     C    0.39184   0.66024   0.00000   1.000
    C30     C    0.89183   0.16025   0.00000   1.000
    C31     C    0.89183   0.66024   0.00000   1.000
    C32     C    0.04147   0.44321   0.88095   1.000
    C33     C    0.04147   0.94320   0.88095   1.000
    C34     C    0.54146   0.44322   0.88095   1.000
    C35     C    0.54146   0.94320   0.88095   1.000
    C36     C    0.13302   0.35914   0.78299   1.000
    C37     C    0.13302   0.85913   0.78299   1.000
    C38     C    0.63301   0.35914   0.78299   1.000
    C39     C    0.63301   0.85913   0.78299   1.000
    C40     C    0.25014   0.48102   0.73844   1.000
    C41     C    0.25013   0.98102   0.73844   1.000
    C42     C    0.75013   0.48102   0.73844   1.000
    C43     C    0.75013   0.98102   0.73844   1.000
    C44     C    0.27926   0.38834   0.71165   1.000
    C45     C    0.27926   0.88834   0.71165   1.000
    C46     C    0.77925   0.38834   0.71165   1.000
    C47     C    0.77925   0.88834   0.71160   1.000
    C48     C    0.20539   0.41319   0.58381   1.000
    C49     C    0.20540   0.91318   0.58381   1.000
    C50     C    0.70539   0.41319   0.58381   1.000
    C51     C    0.70539   0.91318   0.58381   1.000
    C52     C    0.25694   0.49634   0.55165   1.000
    C53     C    0.25693   0.99634   0.55165   1.000
    C54     C    0.75693   0.49634   0.55165   1.000
    C55     C    0.75693   0.99634   0.55160   1.000
    C56     C    0.13116   0.45423   0.00804   1.000
    C57     C    0.13115   0.95423   0.00804   1.000
    C58     C    0.63115   0.45424   0.00804   1.000
    C59     C    0.63115   0.95423   0.00804   1.000
    C60     C    0.11603   0.05727   0.99341   1.000
    C61     C    0.11603   0.55726   0.99341   1.000
    C62     C    0.61603   0.05727   0.99341   1.000
    C63     C    0.61603   0.55726   0.99341   1.000
    C64     C    0.03574   0.00138   0.00000   1.000
    C65     C    0.03574   0.50137   0.00000   1.000
    C66     C    0.53574   0.00138   0.00000   1.000
    C67     C    0.53574   0.50137   0.00000   1.000
    C68     C    0.17202   0.24986   0.89880   1.000
    C69     C    0.17202   0.74985   0.89880   1.000
    C70     C    0.67201   0.24986   0.89880   1.000
    C71     C    0.67201   0.74985   0.89880   1.000
    C72     C    0.26826   0.28634   0.85259   1.000
    C73     C    0.26826   0.78634   0.85250   1.000
    C74     C    0.76825   0.28634   0.85259   1.000
    C75     C    0.76825   0.78634   0.85259   1.000
    C76     C    0.21734   0.26388   0.99073   1.000
    C77     C    0.21734   0.76387   0.99073   1.000
    C78     C    0.71733   0.26388   0.99073   1.000
    C79     C    0.71733   0.76387   0.99073   1.000
    C80     C    0.44875   0.04073   0.38306   1.000
    C81     C    0.44875   0.54073   0.38306   1.000
    C82     C    0.94875   0.04074   0.38300   1.000
    C83     C    0.94875   0.54072   0.38300   1.000
    C84     C    0.49783   0.09310   0.13984   1.000
    C85     C    0.49783   0.59309   0.13980   1.000
    C86     C    0.99782   0.09310   0.13983   1.000
    C87     C    0.99782   0.59309   0.13984   1.000
    C88     C    0.24375   0.33768   0.14129   1.000
    C89     C    0.24374   0.83767   0.14130   1.000
    C90     C    0.74374   0.33768   0.14100   1.000
    C91     C    0.74373   0.83767   0.14130   1.000
    C92     C    0.19863   0.29544   0.38450   1.000
    C93     C    0.19864   0.79542   0.38457   1.000
    C94     C    0.69864   0.29544   0.38450   1.000
    C95     C    0.69862   0.79542   0.38457   1.000
    C96     C    0.13346   0.01076   0.62174   1.000
    C97     C    0.13346   0.51074   0.62174   1.000
    C98     C    0.63346   0.01076   0.62174   1.000
    C99     C    0.63345   0.51074   0.62174   1.000
    C100    C    0.07827   0.01201   0.71976   1.000
    C101    C    0.07827   0.51200   0.71976   1.000
    C102    C    0.57827   0.01201   0.71976   1.000
    C103    C    0.57827   0.51200   0.71976   1.000
    C104    C    0.00679   0.05656   0.72018   1.000
    C105    C    0.00680   0.55656   0.72018   1.000
    C106    C    0.50679   0.05656   0.72018   1.000
    C107    C    0.50679   0.55656   0.72018   1.000
    C108    C    0.49316   0.09787   0.62391   1.000
    C109    C    0.49316   0.59787   0.62391   1.000
    C110    C    0.99315   0.09787   0.62391   1.000
    C111    C    0.99316   0.59787   0.62391   1.000
    C112    C    0.05071   0.09449   0.53063   1.000
    C113    C    0.05072   0.59449   0.53063   1.000
    C114    C    0.55071   0.09449   0.53063   1.000
    C115    C    0.55071   0.59449   0.53063   1.000
    C116    C    0.31958   0.03004   0.94649   1.000
    C117    C    0.31958   0.53003   0.94649   1.000
    C118    C    0.81958   0.03004   0.94649   1.000
    C119    C    0.81958   0.53003   0.94649   1.000
    C120    C    0.37743   0.02048   0.85562   1.000
    C121    C    0.37743   0.52047   0.85562   1.000
    C122    C    0.87742   0.02048   0.85562   1.000
    C123    C    0.87743   0.52047   0.85562   1.000
    C124    C    0.44487   0.06274   0.81919   1.000
    C125    C    0.44488   0.56273   0.81919   1.000
    C126    C    0.94487   0.06274   0.81919   1.000
    C127    C    0.94487   0.56273   0.81919   1.000
    C128    C    0.45059   0.11419   0.87570   1.000
    C129    C    0.45059   0.61418   0.87570   1.000
    C130    C    0.95058   0.11419   0.87570   1.000
    C131    C    0.95058   0.61418   0.87570   1.000
    C132    C    0.38990   0.12129   0.96491   1.000
    C133    C    0.38989   0.62128   0.96491   1.000
    C134    C    0.88989   0.12129   0.96491   1.000
    C135    C    0.88989   0.62128   0.96491   1.000
    C136    C    0.09577   0.46817   0.82322   1.000
    C137    C    0.09576   0.96816   0.82322   1.000
    C138    C    0.59576   0.46817   0.82322   1.000
    C139    C    0.59576   0.96816   0.82322   1.000
    C140    C    0.15864   0.40140   0.80690   1.000
    C141    C    0.15863   0.90140   0.80693   1.000
    C142    C    0.65863   0.40140   0.80693   1.000
    C143    C    0.65863   0.90140   0.80693   1.000
    C144    C    0.23081   0.43337   0.71830   1.000
    C145    C    0.23080   0.93336   0.71830   1.000
    C146    C    0.73080   0.43337   0.71830   1.000
    C147    C    0.73080   0.93336   0.71837   1.000
    C148    C    0.21007   0.46266   0.61367   1.000
    C149    C    0.21007   0.96265   0.61367   1.000
    C150    C    0.71007   0.46266   0.61367   1.000
    C151    C    0.71007   0.96266   0.61367   1.000
    C152    C    0.09952   0.00772   0.97480   1.000
    C153    C    0.09952   0.50770   0.97487   1.000
    C154    C    0.59951   0.00772   0.97480   1.000
    C155    C    0.59951   0.50770   0.97487   1.000
    C156    C    0.21008   0.28728   0.91124   1.000
    C157    C    0.21009   0.78728   0.91124   1.000
    C158    C    0.71008   0.28728   0.91124   1.000
    C159    C    0.71008   0.78728   0.91124   1.000
    C160    C    0.36162   0.05609   0.29438   1.000
    C161    C    0.36162   0.55609   0.29438   1.000
    C162    C    0.86161   0.05610   0.29438   1.000
    C163    C    0.86161   0.55608   0.29438   1.000
    C164    C    0.44215   0.05646   0.30340   1.000
    C165    C    0.44215   0.55645   0.30347   1.000
    C166    C    0.94214   0.05647   0.30340   1.000
    C167    C    0.94214   0.55645   0.30340   1.000
    C168    C    0.00449   0.07700   0.21936   1.000
    C169    C    0.00448   0.57699   0.21936   1.000
    C170    C    0.50448   0.07700   0.21936   1.000
    C171    C    0.50447   0.57699   0.21936   1.000
    C172    C    0.08494   0.07771   0.22800   1.000
    C173    C    0.08494   0.57769   0.22850   1.000
    C174    C    0.58493   0.07770   0.22850   1.000
    C175    C    0.58493   0.57770   0.22850   1.000
    C176    C    0.22262   0.21664   0.23445   1.000
    C177    C    0.22262   0.71663   0.23445   1.000
    C178    C    0.72261   0.21664   0.23445   1.000
    C179    C    0.72261   0.71663   0.23445   1.000
    C180    C    0.22707   0.30106   0.22196   1.000
    C181    C    0.22707   0.80104   0.22196   1.000
    C182    C    0.72707   0.30105   0.22196   1.000
    C183    C    0.72706   0.80104   0.22196   1.000
    C184    C    0.21450   0.33202   0.30383   1.000
    C185    C    0.21450   0.83201   0.30384   1.000
    C186    C    0.71449   0.33202   0.30380   1.000
    C187    C    0.71449   0.83201   0.30380   1.000
    C188    C    0.22070   0.41628   0.29066   1.000
    C189    C    0.22071   0.91627   0.29066   1.000
    C190    C    0.72071   0.41628   0.29066   1.000
    C191    C    0.72069   0.91627   0.29060   1.000
    C192    C    0.11908   0.05172   0.52922   1.000
    C193    C    0.11908   0.55171   0.52922   1.000
    C194    C    0.61907   0.05172   0.52922   1.000
    C195    C    0.61907   0.55171   0.52922   1.000
    C196    C    0.32548   0.07973   0.00000   1.000
    C197    C    0.32548   0.57972   0.00000   1.000
    C198    C    0.82547   0.07973   0.00000   1.000
    C199    C    0.82547   0.57972   0.00000   1.000
    C200    C    0.11946   0.02477   0.86142   1.000
    C201    C    0.11947   0.52476   0.86140   1.000
    C202    C    0.61946   0.02477   0.86142   1.000
    C203    C    0.61946   0.52476   0.86140   1.000
    C204    C    0.17490   0.36450   0.90531   1.000
    C205    C    0.17491   0.86449   0.90531   1.000
    C206    C    0.67490   0.36450   0.90531   1.000
    C207    C    0.67490   0.86449   0.90531   1.000
    C208    C    0.30571   0.05287   0.37975   1.000
    C209    C    0.30570   0.55285   0.37975   1.000
    C210    C    0.80570   0.05287   0.37975   1.000
    C211    C    0.80570   0.55285   0.37975   1.000
    C212    C    0.35419   0.05956   0.20442   1.000
    C213    C    0.35418   0.55955   0.20442   1.000
    C214    C    0.85418   0.05956   0.20442   1.000
    C215    C    0.85418   0.55955   0.20442   1.000
    C216    C    0.09370   0.05953   0.32070   1.000
    C217    C    0.09370   0.55952   0.32078   1.000
    C218    C    0.59369   0.05953   0.32078   1.000
    C219    C    0.59369   0.55952   0.32078   1.000
    C220    C    0.13939   0.09573   0.14154   1.000
    C221    C    0.13939   0.59572   0.14154   1.000
    C222    C    0.63939   0.09573   0.14154   1.000
    C223    C    0.63938   0.59572   0.14154   1.000
    C224    C    0.19054   0.17447   0.32567   1.000
    C225    C    0.19054   0.67446   0.32567   1.000
    C226    C    0.69053   0.17447   0.32567   1.000
    C227    C    0.69053   0.67446   0.32567   1.000
    C228    C    0.25302   0.19347   0.15001   1.000
    C229    C    0.25302   0.69346   0.15001   1.000
    C230    C    0.75301   0.19347   0.15001   1.000
    C231    C    0.75301   0.69346   0.15001   1.000
    C232    C    0.20664   0.43742   0.37590   1.000
    C233    C    0.20663   0.93741   0.37598   1.000
    C234    C    0.70663   0.43742   0.37598   1.000
    C235    C    0.70663   0.93741   0.37598   1.000
    C236    C    0.23853   0.46034   0.19707   1.000
    C237    C    0.23853   0.96033   0.19707   1.000
    C238    C    0.73852   0.46034   0.19707   1.000
    C239    C    0.73852   0.96033   0.19707   1.000
    O240    O    0.28942   0.07893   0.07588   1.000
    O241    O    0.32253   0.05489   0.97324   1.000
    O242    O    0.35769   0.10051   0.98245   1.000
    O243    O    0.28942   0.57892   0.07588   1.000
    O244    O    0.32253   0.55488   0.97324   1.000
    O245    O    0.35769   0.60050   0.98245   1.000
    O246    O    0.78941   0.07893   0.07588   1.000
    O247    O    0.82252   0.05489   0.97324   1.000
    O248    O    0.85768   0.10051   0.98245   1.000
    O249    O    0.78941   0.57892   0.07588   1.000
    O250    O    0.82252   0.55488   0.97324   1.000
    O251    O    0.85768   0.60050   0.98245   1.000
    O252    O    0.06763   0.00455   0.98740   1.000
    O253    O    0.06763   0.50454   0.98743   1.000
    O254    O    0.56763   0.00455   0.98740   1.000
    O255    O    0.56763   0.50454   0.98743   1.000
    O256    O    0.89086   0.64076   0.98245   1.000
    O257    O    0.89086   0.14077   0.98245   1.000
    O258    O    0.39087   0.64076   0.98245   1.000
    O259    O    0.39087   0.14077   0.98245   1.000
    O260    O    0.11534   0.48097   0.99145   1.000
    O261    O    0.61533   0.98097   0.99142   1.000
    O262    O    0.61533   0.48097   0.99145   1.000
    O263    O    0.11534   0.98097   0.99142   1.000
    O264    O    0.50115   0.58504   0.17958   1.000
    O265    O    0.00115   0.08505   0.17960   1.000
    O266    O    0.50115   0.08505   0.17960   1.000
    O267    O    0.00115   0.58504   0.17960   1.000
    O268    O    0.73540   0.31937   0.18148   1.000
    O269    O    0.23541   0.31937   0.18162   1.000
    O270    O    0.73540   0.81936   0.18163   1.000
    O271    O    0.23541   0.81935   0.18163   1.000
    O272    O    0.19637   0.08693   0.14665   1.000
    O273    O    0.11217   0.08672   0.18477   1.000
    O274    O    0.19637   0.58691   0.14665   1.000
    O275    O    0.11217   0.58671   0.18502   1.000
    O276    O    0.69637   0.08693   0.14665   1.000
    O277    O    0.61216   0.08672   0.18502   1.000
    O278    O    0.69637   0.58691   0.14665   1.000
    O279    O    0.61216   0.58671   0.18502   1.000
    O280    O    0.25319   0.13580   0.15088   1.000
    O281    O    0.23782   0.20506   0.19223   1.000
    O282    O    0.25318   0.63579   0.15088   1.000
    O283    O    0.23782   0.70505   0.19223   1.000
    O284    O    0.75318   0.13580   0.15088   1.000
    O285    O    0.73781   0.20506   0.19223   1.000
    O286    O    0.75318   0.63579   0.15088   1.000
    O287    O    0.73781   0.70505   0.19223   1.000
    O288    O    0.24594   0.51923   0.17441   1.000
    O289    O    0.30377   0.56883   0.17809   1.000
    O290    O    0.74593   0.01923   0.17441   1.000
    O291    O    0.80376   0.06884   0.17809   1.000
    O292    O    0.74594   0.51923   0.17441   1.000
    O293    O    0.80376   0.56883   0.17809   1.000
    O294    O    0.24594   0.01923   0.17441   1.000
    O295    O    0.30377   0.06884   0.17809   1.000
    O296    O    0.72961   0.43831   0.24386   1.000
    O297    O    0.22962   0.93830   0.24386   1.000
    O298    O    0.22962   0.43831   0.24386   1.000
    O299    O    0.72961   0.93830   0.24383   1.000
    O300    O    0.35790   0.05783   0.24940   1.000
    O301    O    0.35790   0.55782   0.24940   1.000
    O302    O    0.85789   0.05783   0.24940   1.000
    O303    O    0.85789   0.55781   0.24940   1.000
    O304    O    0.04471   0.57734   0.22393   1.000
    O305    O    0.97331   0.56672   0.26138   1.000
    O306    O    0.54470   0.57734   0.22393   1.000
    O307    O    0.47331   0.56672   0.26141   1.000
    O308    O    0.54471   0.07735   0.22393   1.000
    O309    O    0.47331   0.06673   0.26138   1.000
    O310    O    0.04471   0.07736   0.22368   1.000
    O311    O    0.97331   0.06673   0.26138   1.000
    O312    O    0.22484   0.25885   0.22820   1.000
    O313    O    0.22079   0.31654   0.26289   1.000
    O314    O    0.22484   0.75884   0.22820   1.000
    O315    O    0.22078   0.81653   0.26290   1.000
    O316    O    0.72484   0.25885   0.22820   1.000
    O317    O    0.72078   0.31654   0.26288   1.000
    O318    O    0.72483   0.75884   0.22820   1.000
    O319    O    0.72078   0.81653   0.26288   1.000
    O320    O    0.08932   0.06862   0.27435   1.000
    O321    O    0.08932   0.56861   0.27464   1.000
    O322    O    0.58931   0.06862   0.27464   1.000
    O323    O    0.58931   0.56861   0.27464   1.000
    O324    O    0.70657   0.69555   0.28006   1.000
    O325    O    0.70657   0.19556   0.28006   1.000
    O326    O    0.20658   0.69555   0.28006   1.000
    O327    O    0.20658   0.19556   0.28006   1.000
    O328    O    0.71759   0.87414   0.29720   1.000
    O329    O    0.71366   0.92684   0.33329   1.000
    O330    O    0.21760   0.37415   0.29724   1.000
    O331    O    0.21367   0.42685   0.33328   1.000
    O332    O    0.71760   0.37415   0.29723   1.000
    O333    O    0.71367   0.42685   0.33332   1.000
    O334    O    0.21760   0.87414   0.29725   1.000
    O335    O    0.21367   0.92684   0.33332   1.000
    O336    O    0.90188   0.55627   0.29889   1.000
    O337    O    0.83365   0.55447   0.33706   1.000
    O338    O    0.90188   0.05628   0.29889   1.000
    O339    O    0.83366   0.05448   0.33706   1.000
    O340    O    0.40188   0.55627   0.29892   1.000
    O341    O    0.33366   0.55447   0.33706   1.000
    O342    O    0.40189   0.05628   0.29889   1.000
    O343    O    0.33366   0.05448   0.33706   1.000
    O344    O    0.94544   0.54859   0.34320   1.000
    O345    O    0.94545   0.04860   0.34320   1.000
    O346    O    0.44545   0.04860   0.34323   1.000
    O347    O    0.44545   0.54859   0.34326   1.000
    O348    O    0.70656   0.31373   0.34415   1.000
    O349    O    0.70656   0.81372   0.34419   1.000
    O350    O    0.20656   0.31373   0.34416   1.000
    O351    O    0.20657   0.81372   0.34420   1.000
    O352    O    0.14257   0.05644   0.34855   1.000
    O353    O    0.64256   0.55643   0.34859   1.000
    O354    O    0.14256   0.55643   0.34859   1.000
    O355    O    0.64256   0.05644   0.34859   1.000
    O356    O    0.19099   0.11391   0.35103   1.000
    O357    O    0.19098   0.61389   0.35103   1.000
    O358    O    0.69098   0.11391   0.35103   1.000
    O359    O    0.69098   0.61389   0.35103   1.000
    O360    O    0.19903   0.49537   0.37615   1.000
    O361    O    0.19903   0.99537   0.37619   1.000
    O362    O    0.69903   0.99537   0.37619   1.000
    O363    O    0.69903   0.49537   0.37619   1.000
    O364    O    0.24857   0.05310   0.37807   1.000
    O365    O    0.15525   0.05253   0.45281   1.000
    O366    O    0.24857   0.55309   0.37807   1.000
    O367    O    0.15525   0.55252   0.45281   1.000
    O368    O    0.74856   0.05310   0.37807   1.000
    O369    O    0.65525   0.05253   0.45281   1.000
    O370    O    0.74856   0.55309   0.37807   1.000
    O371    O    0.65525   0.55252   0.45281   1.000
    O372    O    0.54684   0.11020   0.49218   1.000
    O373    O    0.54684   0.61019   0.49218   1.000
    O374    O    0.04685   0.61019   0.49218   1.000
    O375    O    0.04684   0.11020   0.49218   1.000
    O376    O    0.58489   0.07311   0.52992   1.000
    O377    O    0.62626   0.03124   0.57548   1.000
    O378    O    0.08490   0.07311   0.52992   1.000
    O379    O    0.12627   0.03124   0.57548   1.000
    O380    O    0.58489   0.57310   0.52992   1.000
    O381    O    0.62626   0.53123   0.57548   1.000
    O382    O    0.08490   0.57310   0.52992   1.000
    O383    O    0.12627   0.53123   0.57548   1.000
    O384    O    0.02193   0.09618   0.57727   1.000
    O385    O    0.02194   0.59618   0.57727   1.000
    O386    O    0.52193   0.09618   0.57727   1.000
    O387    O    0.52194   0.59618   0.57727   1.000
    O388    O    0.73350   0.97950   0.58263   1.000
    O389    O    0.23350   0.97950   0.58266   1.000
    O390    O    0.73350   0.47950   0.58266   1.000
    O391    O    0.23351   0.47950   0.58266   1.000
    O392    O    0.20773   0.43792   0.59874   1.000
    O393    O    0.20773   0.93792   0.59874   1.000
    O394    O    0.70773   0.43793   0.59874   1.000
    O395    O    0.70773   0.93792   0.59874   1.000
    O396    O    0.17177   0.98670   0.61770   1.000
    O397    O    0.22044   0.94801   0.66598   1.000
    O398    O    0.67176   0.98671   0.61770   1.000
    O399    O    0.72043   0.94801   0.66602   1.000
    O400    O    0.67176   0.48670   0.61770   1.000
    O401    O    0.72043   0.44802   0.66598   1.000
    O402    O    0.17177   0.48670   0.61770   1.000
    O403    O    0.22044   0.44801   0.66598   1.000
    O404    O    0.96581   0.61538   0.62276   1.000
    O405    O    0.96581   0.11539   0.62276   1.000
    O406    O    0.46582   0.61538   0.62276   1.000
    O407    O    0.46582   0.11539   0.62276   1.000
    O408    O    0.10587   0.51137   0.67075   1.000
    O409    O    0.10587   0.01138   0.67075   1.000
    O410    O    0.60586   0.01138   0.67075   1.000
    O411    O    0.60586   0.51137   0.67075   1.000
    O412    O    0.99998   0.57721   0.67204   1.000
    O413    O    0.99997   0.07722   0.67204   1.000
    O414    O    0.49998   0.57721   0.67204   1.000
    O415    O    0.49998   0.07722   0.67204   1.000
    O416    O    0.75502   0.91085   0.71498   1.000
    O417    O    0.25503   0.41085   0.71498   1.000
    O418    O    0.25503   0.91085   0.71498   1.000
    O419    O    0.75502   0.41085   0.71498   1.000
    O420    O    0.24047   0.45719   0.72837   1.000
    O421    O    0.19472   0.41739   0.76260   1.000
    O422    O    0.24047   0.95719   0.72837   1.000
    O423    O    0.19472   0.91738   0.76261   1.000
    O424    O    0.74046   0.45719   0.72837   1.000
    O425    O    0.69471   0.41739   0.76261   1.000
    O426    O    0.74046   0.95719   0.72840   1.000
    O427    O    0.69471   0.91738   0.76265   1.000
    O428    O    0.04253   0.53428   0.71997   1.000
    O429    O    0.08702   0.49008   0.77149   1.000
    O430    O    0.54253   0.53428   0.71997   1.000
    O431    O    0.58701   0.49008   0.77149   1.000
    O432    O    0.54253   0.03429   0.71997   1.000
    O433    O    0.58701   0.99009   0.77149   1.000
    O434    O    0.04253   0.03429   0.71997   1.000
    O435    O    0.08702   0.99008   0.77149   1.000
    O436    O    0.47583   0.05965   0.76969   1.000
    O437    O    0.47583   0.55965   0.76969   1.000
    O438    O    0.97583   0.55964   0.76969   1.000
    O439    O    0.97583   0.05965   0.76969   1.000
    O440    O    0.64582   0.88027   0.79496   1.000
    O441    O    0.64582   0.38027   0.79496   1.000
    O442    O    0.14583   0.88027   0.79496   1.000
    O443    O    0.14583   0.38027   0.79494   1.000
    O444    O    0.12720   0.43479   0.81506   1.000
    O445    O    0.16677   0.38295   0.85610   1.000
    O446    O    0.62719   0.43479   0.81507   1.000
    O447    O    0.66676   0.38295   0.85612   1.000
    O448    O    0.12720   0.93478   0.81507   1.000
    O449    O    0.16677   0.88295   0.85612   1.000
    O450    O    0.62719   0.93478   0.81507   1.000
    O451    O    0.66676   0.88295   0.85612   1.000
    O452    O    0.37367   0.50024   0.83491   1.000
    O453    O    0.37367   0.00024   0.83491   1.000
    O454    O    0.87367   0.50023   0.83491   1.000
    O455    O    0.87366   0.00023   0.83491   1.000
    O456    O    0.41115   0.54160   0.83740   1.000
    O457    O    0.44773   0.58846   0.84745   1.000
    O458    O    0.91115   0.04161   0.83740   1.000
    O459    O    0.94772   0.08846   0.84745   1.000
    O460    O    0.91115   0.54160   0.83740   1.000
    O461    O    0.94772   0.58846   0.84745   1.000
    O462    O    0.41115   0.04161   0.83740   1.000
    O463    O    0.44773   0.08846   0.84745   1.000
    O464    O    0.10762   0.49646   0.84231   1.000
    O465    O    0.06862   0.45569   0.85208   1.000
    O466    O    0.10761   0.99646   0.84232   1.000
    O467    O    0.06862   0.95568   0.85208   1.000
    O468    O    0.60761   0.49646   0.84231   1.000
    O469    O    0.56861   0.45569   0.85208   1.000
    O470    O    0.60761   0.99647   0.84232   1.000
    O471    O    0.56861   0.95568   0.85208   1.000
    O472    O    0.47648   0.13087   0.86316   1.000
    O473    O    0.47648   0.63086   0.86316   1.000
    O474    O    0.97529   0.13087   0.86316   1.000
    O475    O    0.97529   0.63086   0.86316   1.000
    O476    O    0.23918   0.78681   0.88187   1.000
    O477    O    0.73917   0.78681   0.88191   1.000
    O478    O    0.73916   0.28682   0.88191   1.000
    O479    O    0.23917   0.28682   0.88191   1.000
    O480    O    0.84850   0.52525   0.90105   1.000
    O481    O    0.34851   0.02526   0.90105   1.000
    O482    O    0.34851   0.52525   0.90105   1.000
    O483    O    0.84850   0.02526   0.90105   1.000
    O484    O    0.10949   0.51623   0.91813   1.000
    O485    O    0.60949   0.51623   0.91813   1.000
    O486    O    0.10949   0.01624   0.91811   1.000
    O487    O    0.60949   0.01625   0.91811   1.000
    O488    O    0.42024   0.61773   0.92030   1.000
    O489    O    0.92023   0.11774   0.92030   1.000
    O490    O    0.92023   0.61773   0.92030   1.000
    O491    O    0.42024   0.11774   0.92030   1.000
    O492    O    0.19105   0.76856   0.90502   1.000
    O493    O    0.69105   0.76856   0.90502   1.000
    O494    O    0.69104   0.26857   0.90502   1.000
    O495    O    0.19105   0.26857   0.90502   1.000
    O496    O    0.19250   0.82589   0.90827   1.000
    O497    O    0.69249   0.32589   0.90827   1.000
    O498    O    0.69249   0.82589   0.90827   1.000
    O499    O    0.19249   0.32589   0.90827   1.000
    O500    O    0.71370   0.27558   0.95098   1.000
    O501    O    0.21372   0.77557   0.95098   1.000
    O502    O    0.71371   0.77557   0.95098   1.000
    O503    O    0.21371   0.27558   0.95098   1.000
    O504    O    0.79337   0.51348   0.96248   1.000
    O505    O    0.29337   0.01348   0.96247   1.000
    O506    O    0.29338   0.51348   0.96247   1.000
    O507    O    0.79337   0.01348   0.96248   1.000
    O508    O    0.10777   0.03249   0.98410   1.000
    O509    O    0.60777   0.03250   0.98410   1.000
    O510    O    0.10778   0.53248   0.98414   1.000
    O511    O    0.60777   0.53248   0.98414   1.000
    O512    O    0.22239   0.06573   0.26408   1.000
    O513    O    0.22239   0.56572   0.26408   1.000
    O514    O    0.72239   0.06573   0.26408   1.000
    O515    O    0.72238   0.56572   0.26408   1.000
loop_
    _geom_bond_atom_site_label_1
    _geom_bond_atom_site_label_2
    _geom_bond_distance
    _geom_bond_site_symmetry_2
    _ccdc_geom_bond_type
    C196   O240      1.04166      .   S
    C0     O240      1.04166      .   S
    C196   O241      0.67196  1_554   S
    C116   O241      0.67196      .   S
    C196   O242      0.67499  1_554   S
    C132   O242      0.67499      .   S
    C197   O243      1.04165      .   S
    C1     O243      1.04165      .   S
    C197   O244      0.67195  1_554   S
    C117   O244      0.67195      .   S
    C197   O245      0.67499  1_554   S
    C133   O245      0.67499      .   S
    C198   O246      1.04165      .   S
    C2     O246      1.04165      .   S
    C198   O247      0.67197  1_554   S
    C118   O247      0.67197      .   S
    C198   O248      0.67499  1_554   S
    C134   O248      0.67499      .   S
    C199   O249      1.04165      .   S
    C3     O249      1.04165      .   S
    C199   O250      0.67198  1_554   S
    C119   O250      0.67198      .   S
    C199   O251      0.67499  1_554   S
    C135   O251      0.67499      .   S
    C64    O252      0.54979  1_554   S
    C152   O252      0.54979      .   S
    C65    O253      0.54981  1_554   S
    C153   O253      0.54981      .   S
    C66    O254      0.54979  1_554   S
    C154   O254      0.54979      .   S
    C67    O255      0.54980  1_554   S
    C155   O255      0.54980      .   S
    C31    O256      0.48406  1_554   S
    C135   O256      0.48406      .   S
    C30    O257      0.48407  1_554   S
    C134   O257      0.48407      .   S
    C29    O258      0.48405  1_554   S
    C133   O258      0.48405      .   S
    C28    O259      0.48405  1_554   S
    C132   O259      0.48405      .   S
    C56    O260      0.54880  1_554   S
    C153   O260      0.54880      .   S
    C59    O261      0.54908  1_554   S
    C154   O261      0.54908  1_545   S
    C58    O262      0.54881  1_554   S
    C155   O262      0.54881      .   S
    C57    O263      0.54908  1_554   S
    C152   O263      0.54908  1_545   S
    C85    O264      0.54501      .   S
    C171   O264      0.54501      .   S
    C86    O265      0.54486  1_655   S
    C168   O265      0.54486      .   S
    C84    O266      0.54475      .   S
    C170   O266      0.54475      .   S
    C87    O267      0.54481  1_655   S
    C169   O267      0.54481      .   S
    C90    O268      0.54673      .   S
    C182   O268      0.54673      .   S
    C88    O269      0.54521      .   S
    C180   O269      0.54521      .   S
    C91    O270      0.54516      .   S
    C183   O270      0.54516      .   S
    C89    O271      0.54516      .   S
    C181   O271      0.54516      .   S
    C220   O272      1.03164      .   S
    C0     O272      1.03164      .   S
    C220   O273      0.63735      .   S
    C172   O273      0.63735      .   S
    C221   O274      1.03165      .   S
    C1     O274      1.03165      .   S
    C221   O275      0.63951      .   S
    C173   O275      0.63951      .   S
    C222   O276      1.03165      .   S
    C2     O276      1.03165      .   S
    C222   O277      0.63951      .   S
    C174   O277      0.63951      .   S
    C223   O278      1.03165      .   S
    C3     O278      1.03165      .   S
    C223   O279      0.63951      .   S
    C175   O279      0.63951      .   S
    C228   O280      1.03315      .   S
    C0     O280      1.03315      .   S
    C228   O281      0.64063      .   S
    C176   O281      0.64063      .   S
    C229   O282      1.03315      .   S
    C1     O282      1.03315      .   S
    C229   O283      0.64063      .   S
    C177   O283      0.64063      .   S
    C230   O284      1.03315      .   S
    C2     O284      1.03315      .   S
    C230   O285      0.64063      .   S
    C178   O285      0.64063      .   S
    C231   O286      1.03315      .   S
    C3     O286      1.03315      .   S
    C231   O287      0.64063      .   S
    C179   O287      0.64063      .   S
    C1     O288      1.03026      .   S
    C236   O288      1.03026      .   S
    C1     O289      1.04922      .   S
    C213   O289      1.04922      .   S
    C2     O290      1.03047      .   S
    C239   O290      1.03047  1_565   S
    C2     O291      1.04922      .   S
    C214   O291      1.04922      .   S
    C3     O292      1.03026      .   S
    C238   O292      1.03026      .   S
    C3     O293      1.04922      .   S
    C215   O293      1.04922      .   S
    C0     O294      1.03047      .   S
    C237   O294      1.03047  1_565   S
    C0     O295      1.04923      .   S
    C212   O295      1.04923      .   S
    C238   O296      0.63713      .   S
    C190   O296      0.63713      .   S
    C237   O297      0.63713      .   S
    C189   O297      0.63713      .   S
    C236   O298      0.63712      .   S
    C188   O298      0.63712      .   S
    C239   O299      0.63681      .   S
    C191   O299      0.63681      .   S
    C212   O300      0.63503      .   S
    C160   O300      0.63503      .   S
    C213   O301      0.63504      .   S
    C161   O301      0.63504      .   S
    C214   O302      0.63504      .   S
    C162   O302      0.63504      .   S
    C215   O303      0.63502      .   S
    C163   O303      0.63502      .   S
    C169   O304      0.74408      .   S
    C173   O304      0.74408      .   S
    C169   O305      0.67021  1_455   S
    C167   O305      0.67021      .   S
    C171   O306      0.74408      .   S
    C175   O306      0.74408      .   S
    C171   O307      0.67038      .   S
    C165   O307      0.67038      .   S
    C170   O308      0.74407      .   S
    C174   O308      0.74407      .   S
    C170   O309      0.67013      .   S
    C164   O309      0.67013      .   S
    C168   O310      0.74275      .   S
    C172   O310      0.74275      .   S
    C168   O311      0.67020  1_455   S
    C166   O311      0.67020      .   S
    C180   O312      0.74435      .   S
    C176   O312      0.74435      .   S
    C180   O313      0.67055      .   S
    C184   O313      0.67055      .   S
    C181   O314      0.74434      .   S
    C177   O314      0.74434      .   S
    C181   O315      0.67061      .   S
    C185   O315      0.67061      .   S
    C182   O316      0.74435      .   S
    C178   O316      0.74435      .   S
    C182   O317      0.67036      .   S
    C186   O317      0.67036      .   S
    C183   O318      0.74435      .   S
    C179   O318      0.74435      .   S
    C183   O319      0.67036      .   S
    C187   O319      0.67036      .   S
    C172   O320      0.63879      .   S
    C216   O320      0.63879      .   S
    C173   O321      0.63600      .   S
    C217   O321      0.63600      .   S
    C174   O322      0.63600      .   S
    C218   O322      0.63600      .   S
    C175   O323      0.63600      .   S
    C219   O323      0.63600      .   S
    C179   O324      0.63561      .   S
    C227   O324      0.63561      .   S
    C178   O325      0.63561      .   S
    C226   O325      0.63561      .   S
    C177   O326      0.63561      .   S
    C225   O326      0.63561      .   S
    C176   O327      0.63561      .   S
    C224   O327      0.63561      .   S
    C191   O328      0.74475      .   S
    C187   O328      0.74475      .   S
    C191   O329      0.63946      .   S
    C235   O329      0.63946      .   S
    C188   O330      0.74480      .   S
    C184   O330      0.74480      .   S
    C188   O331      0.63854      .   S
    C232   O331      0.63854      .   S
    C190   O332      0.74483      .   S
    C186   O332      0.74483      .   S
    C190   O333      0.63906      .   S
    C234   O333      0.63906      .   S
    C189   O334      0.74478      .   S
    C185   O334      0.74478      .   S
    C189   O335      0.63906      .   S
    C233   O335      0.63906      .   S
    C163   O336      0.74391      .   S
    C167   O336      0.74391      .   S
    C163   O337      0.63965      .   S
    C211   O337      0.63965      .   S
    C162   O338      0.74390      .   S
    C166   O338      0.74390      .   S
    C162   O339      0.63964      .   S
    C210   O339      0.63964      .   S
    C161   O340      0.74409      .   S
    C165   O340      0.74409      .   S
    C161   O341      0.63964      .   S
    C209   O341      0.63964      .   S
    C160   O342      0.74390      .   S
    C164   O342      0.74390      .   S
    C160   O343      0.63965      .   S
    C208   O343      0.63965      .   S
    C167   O344      0.54527      .   S
    C83    O344      0.54527      .   S
    C166   O345      0.54526      .   S
    C82    O345      0.54526      .   S
    C164   O346      0.54566      .   S
    C80    O346      0.54566      .   S
    C165   O347      0.54520      .   S
    C81    O347      0.54520      .   S
    C186   O348      0.54497      .   S
    C94    O348      0.54497      .   S
    C187   O349      0.54533      .   S
    C95    O349      0.54533      .   S
    C184   O350      0.54481      .   S
    C92    O350      0.54481      .   S
    C185   O351      0.54513      .   S
    C93    O351      0.54513      .   S
    C216   O352      1.04864      .   S
    C4     O352      1.04864      .   S
    C219   O353      1.04831      .   S
    C7     O353      1.04831      .   S
    C217   O354      1.04831      .   S
    C5     O354      1.04831      .   S
    C218   O355      1.04831      .   S
    C6     O355      1.04831      .   S
    C224   O356      1.04348      .   S
    C4     O356      1.04348      .   S
    C225   O357      1.04348      .   S
    C5     O357      1.04348      .   S
    C226   O358      1.04348      .   S
    C6     O358      1.04348      .   S
    C227   O359      1.04348      .   S
    C7     O359      1.04348      .   S
    C232   O360      1.03186      .   S
    C5     O360      1.03186      .   S
    C233   O361      1.03193      .   S
    C4     O361      1.03193  1_545   S
    C235   O362      1.03193      .   S
    C6     O362      1.03193  1_545   S
    C234   O363      1.03172      .   S
    C7     O363      1.03172      .   S
    C4     O364      1.03090      .   S
    C208   O364      1.03090      .   S
    C4     O365      1.04817      .   S
    C192   O365      1.04817      .   S
    C5     O366      1.03089      .   S
    C209   O366      1.03089      .   S
    C5     O367      1.04817      .   S
    C193   O367      1.04817      .   S
    C6     O368      1.03090      .   S
    C210   O368      1.03090      .   S
    C6     O369      1.04817      .   S
    C194   O369      1.04817      .   S
    C7     O370      1.03090      .   S
    C211   O370      1.03090      .   S
    C7     O371      1.04817      .   S
    C195   O371      1.04817      .   S
    C14    O372      0.54436      .   S
    C114   O372      0.54436      .   S
    C15    O373      0.54436      .   S
    C115   O373      0.54436      .   S
    C13    O374      0.54436      .   S
    C113   O374      0.54436      .   S
    C12    O375      0.54436      .   S
    C112   O375      0.54436      .   S
    C194   O376      0.67319      .   S
    C114   O376      0.67319      .   S
    C194   O377      0.67887      .   S
    C98    O377      0.67887      .   S
    C192   O378      0.67319      .   S
    C112   O378      0.67319      .   S
    C192   O379      0.67887      .   S
    C96    O379      0.67887      .   S
    C195   O380      0.67319      .   S
    C115   O380      0.67319      .   S
    C195   O381      0.67887      .   S
    C99    O381      0.67887      .   S
    C193   O382      0.67318      .   S
    C113   O382      0.67318      .   S
    C193   O383      0.67888      .   S
    C97    O383      0.67888      .   S
    C112   O384      0.69326      .   S
    C110   O384      0.69326  1_655   S
    C113   O385      0.69326      .   S
    C111   O385      0.69326  1_655   S
    C114   O386      0.69320      .   S
    C108   O386      0.69320      .   S
    C115   O387      0.69320      .   S
    C109   O387      0.69320      .   S
    C55    O388      0.54961      .   S
    C151   O388      0.54961      .   S
    C53    O389      0.54947      .   S
    C149   O389      0.54947      .   S
    C54    O390      0.54947      .   S
    C150   O390      0.54947      .   S
    C52    O391      0.54947      .   S
    C148   O391      0.54947      .   S
    C48    O392      0.55235      .   S
    C148   O392      0.55235      .   S
    C49    O393      0.55235      .   S
    C149   O393      0.55235      .   S
    C50    O394      0.55234      .   S
    C150   O394      0.55234      .   S
    C51    O395      0.55234      .   S
    C151   O395      0.55234      .   S
    C149   O396      0.75176      .   S
    C96    O396      0.75176  1_545   S
    C149   O397      0.76368      .   S
    C145   O397      0.76368      .   S
    C151   O398      0.75175      .   S
    C98    O398      0.75175  1_545   S
    C151   O399      0.76413      .   S
    C147   O399      0.76413      .   S
    C150   O400      0.75170      .   S
    C99    O400      0.75170      .   S
    C150   O401      0.76368      .   S
    C146   O401      0.76368      .   S
    C148   O402      0.75170      .   S
    C97    O402      0.75170      .   S
    C148   O403      0.76369      .   S
    C144   O403      0.76369      .   S
    C11    O404      0.54465      .   S
    C111   O404      0.54465      .   S
    C10    O405      0.54465      .   S
    C110   O405      0.54465      .   S
    C9     O406      0.54465      .   S
    C109   O406      0.54465      .   S
    C8     O407      0.54465      .   S
    C108   O407      0.54465      .   S
    C97    O408      0.70422      .   S
    C101   O408      0.70422      .   S
    C96    O409      0.70422      .   S
    C100   O409      0.70422      .   S
    C98    O410      0.70422      .   S
    C102   O410      0.70422      .   S
    C99    O411      0.70422      .   S
    C103   O411      0.70422      .   S
    C111   O412      0.69882      .   S
    C105   O412      0.69882  1_455   S
    C110   O413      0.69882      .   S
    C104   O413      0.69882  1_455   S
    C109   O414      0.69877      .   S
    C107   O414      0.69877      .   S
    C108   O415      0.69877      .   S
    C106   O415      0.69877      .   S
    C47    O416      0.54926      .   S
    C147   O416      0.54926      .   S
    C44    O417      0.54921      .   S
    C144   O417      0.54921      .   S
    C45    O418      0.54921      .   S
    C145   O418      0.54921      .   S
    C46    O419      0.54921      .   S
    C146   O419      0.54921      .   S
    C144   O420      0.55079      .   S
    C40    O420      0.55079      .   S
    C144   O421      0.76268      .   S
    C140   O421      0.76268      .   S
    C145   O422      0.55079      .   S
    C41    O422      0.55079      .   S
    C145   O423      0.76278      .   S
    C141   O423      0.76278      .   S
    C146   O424      0.55079      .   S
    C42    O424      0.55079      .   S
    C146   O425      0.76277      .   S
    C142   O425      0.76277      .   S
    C147   O426      0.55051      .   S
    C43    O426      0.55051      .   S
    C147   O427      0.76257      .   S
    C143   O427      0.76257      .   S
    C101   O428      0.70401      .   S
    C105   O428      0.70401      .   S
    C101   O429      0.76021      .   S
    C136   O429      0.76021      .   S
    C103   O430      0.70401      .   S
    C107   O430      0.70401      .   S
    C103   O431      0.76021      .   S
    C138   O431      0.76021      .   S
    C102   O432      0.70400      .   S
    C106   O432      0.70400      .   S
    C102   O433      0.76023  1_545   S
    C139   O433      0.76023      .   S
    C100   O434      0.70400      .   S
    C104   O434      0.70400      .   S
    C100   O435      0.76024  1_545   S
    C137   O435      0.76024      .   S
    C106   O436      0.74416      .   S
    C124   O436      0.74416      .   S
    C107   O437      0.74416      .   S
    C125   O437      0.74416      .   S
    C105   O438      0.74421  1_455   S
    C127   O438      0.74421      .   S
    C104   O439      0.74421  1_455   S
    C126   O439      0.74421      .   S
    C39    O440      0.55591      .   S
    C143   O440      0.55591      .   S
    C38    O441      0.55592      .   S
    C142   O441      0.55592      .   S
    C37    O442      0.55590      .   S
    C141   O442      0.55590      .   S
    C36    O443      0.55579      .   S
    C140   O443      0.55579      .   S
    C140   O444      0.76893      .   S
    C136   O444      0.76893      .   S
    C140   O445      0.71346      .   S
    C204   O445      0.71346      .   S
    C142   O446      0.76890      .   S
    C138   O446      0.76890      .   S
    C142   O447      0.71328      .   S
    C206   O447      0.71328      .   S
    C141   O448      0.76890      .   S
    C137   O448      0.76890      .   S
    C141   O449      0.71328      .   S
    C205   O449      0.71328      .   S
    C143   O450      0.76890      .   S
    C139   O450      0.76890      .   S
    C143   O451      0.71328      .   S
    C207   O451      0.71328      .   S
    C20    O452      0.54483      .   S
    C121   O452      0.54483      .   S
    C21    O453      0.54503  1_565   S
    C120   O453      0.54503      .   S
    C22    O454      0.54480      .   S
    C123   O454      0.54480      .   S
    C23    O455      0.54499  1_565   S
    C122   O455      0.54499      .   S
    C125   O456      0.70042      .   S
    C121   O456      0.70042      .   S
    C125   O457      0.70039      .   S
    C129   O457      0.70039      .   S
    C126   O458      0.70041      .   S
    C122   O458      0.70041      .   S
    C126   O459      0.70042      .   S
    C130   O459      0.70042      .   S
    C127   O460      0.70041      .   S
    C123   O460      0.70041      .   S
    C127   O461      0.70041      .   S
    C131   O461      0.70041      .   S
    C124   O462      0.70042      .   S
    C120   O462      0.70042      .   S
    C124   O463      0.70039      .   S
    C128   O463      0.70039      .   S
    C136   O464      0.71828      .   S
    C201   O464      0.71828      .   S
    C136   O465      0.55285      .   S
    C32    O465      0.55285      .   S
    C137   O466      0.71857      .   S
    C200   O466      0.71857  1_545   S
    C137   O467      0.55286      .   S
    C33    O467      0.55286      .   S
    C138   O468      0.71828      .   S
    C203   O468      0.71828      .   S
    C138   O469      0.55286      .   S
    C34    O469      0.55286      .   S
    C139   O470      0.71857      .   S
    C202   O470      0.71857  1_545   S
    C139   O471      0.55286      .   S
    C35    O471      0.55286      .   S
    C24    O472      0.54421      .   S
    C128   O472      0.54421      .   S
    C25    O473      0.54422      .   S
    C129   O473      0.54422      .   S
    C26    O474      0.52663  1_455   S
    C130   O474      0.52663      .   S
    C27    O475      0.52666  1_455   S
    C131   O475      0.52666      .   S
    C73    O476      0.55252      .   S
    C157   O476      0.55252      .   S
    C75    O477      0.55224      .   S
    C159   O477      0.55224      .   S
    C74    O478      0.55225      .   S
    C158   O478      0.55225      .   S
    C72    O479      0.55225      .   S
    C156   O479      0.55225      .   S
    C123   O480      0.69590      .   S
    C119   O480      0.69590      .   S
    C120   O481      0.69590      .   S
    C116   O481      0.69590      .   S
    C121   O482      0.69590      .   S
    C117   O482      0.69590      .   S
    C122   O483      0.69590      .   S
    C118   O483      0.69590      .   S
    C201   O484      0.72023      .   S
    C153   O484      0.72023      .   S
    C203   O485      0.72023      .   S
    C155   O485      0.72023      .   S
    C200   O486      0.71964      .   S
    C152   O486      0.71964      .   S
    C202   O487      0.71964      .   S
    C154   O487      0.71964      .   S
    C129   O488      0.69449      .   S
    C133   O488      0.69449      .   S
    C130   O489      0.69448      .   S
    C134   O489      0.69448      .   S
    C131   O490      0.69448      .   S
    C135   O490      0.69448      .   S
    C128   O491      0.69448      .   S
    C132   O491      0.69448      .   S
    C69    O492      0.55231      .   S
    C157   O492      0.55231      .   S
    C71    O493      0.55231      .   S
    C159   O493      0.55231      .   S
    C70    O494      0.55230      .   S
    C158   O494      0.55230      .   S
    C68    O495      0.55231      .   S
    C156   O495      0.55231      .   S
    C205   O496      0.71480      .   S
    C157   O496      0.71480      .   S
    C206   O497      0.71479      .   S
    C158   O497      0.71479      .   S
    C207   O498      0.71479      .   S
    C159   O498      0.71479      .   S
    C204   O499      0.71479      .   S
    C156   O499      0.71479      .   S
    C158   O500      0.54798      .   S
    C78    O500      0.54798      .   S
    C157   O501      0.54798      .   S
    C77    O501      0.54798      .   S
    C159   O502      0.54798      .   S
    C79    O502      0.54798      .   S
    C156   O503      0.54798      .   S
    C76    O503      0.54798      .   S
    C119   O504      0.54461      .   S
    C18    O504      0.54461      .   S
    C116   O505      0.54477      .   S
    C17    O505      0.54477  1_565   S
    C117   O506      0.54462      .   S
    C16    O506      0.54462      .   S
    C118   O507      0.54477      .   S
    C19    O507      0.54477  1_565   S
    C152   O508      0.54818      .   S
    C60    O508      0.54818      .   S
    C154   O509      0.54819      .   S
    C62    O509      0.54819      .   S
    C153   O510      0.54792      .   S
    C61    O510      0.54792      .   S
    C155   O511      0.54793      .   S
    C63    O511      0.54793      .   S
    C0     O512      1.43405      .   S
    C4     O512      1.43405      .   S
    C1     O513      1.43405      .   S
    C5     O513      1.43405      .   S
    C2     O514      1.43405      .   S
    C6     O514      1.43405      .   S
    C3     O515      1.43405      .   S
    C7     O515      1.43405      .   S
