# CIF file generated by openbabel 2.4.90, see http://openbabel.sf.net
data_I
_chemical_name_common ''
_cell_length_a 17.924
_cell_length_b 17.979
_cell_length_c 13.775
_cell_angle_alpha 73.331
_cell_angle_beta 71.911
_cell_angle_gamma 81.632
_space_group_name_H-M_alt 'P 1'
_space_group_name_Hall 'P 1'
loop_
    _symmetry_equiv_pos_as_xyz
    x,y,z
loop_
    _atom_site_label
    _atom_site_type_symbol
    _atom_site_fract_x
    _atom_site_fract_y
    _atom_site_fract_z
    _atom_site_occupancy
    Zr0     Zr   0.25335   0.07812   0.15176   1.000
    Zr1     Zr   0.25335   0.57811   0.15176   1.000
    Zr2     Zr   0.75335   0.07812   0.15176   1.000
    Zr3     Zr   0.75335   0.57811   0.15176   1.000
    Zr4     Zr   0.19143   0.05334   0.37640   1.000
    Zr5     Zr   0.19143   0.55333   0.37640   1.000
    Zr6     Zr   0.69143   0.05334   0.37640   1.000
    Zr7     Zr   0.69142   0.55333   0.37640   1.000
    O8      O    0.22239   0.06573   0.26408   1.000
    O9      O    0.22239   0.56572   0.26408   1.000
    O10     O    0.72239   0.06573   0.26408   1.000
    O11     O    0.72238   0.56572   0.26408   1.000
    N12     N    0.56863   0.49051   0.80353   1.000
    O13     O    0.61194   0.52151   0.62817   1.000
    O14     O    0.42902   0.53471   0.93970   1.000
    N15     N    0.06857   0.99051   0.80352   1.000
    O16     O    0.11191   0.02152   0.62817   1.000
    O17     O    0.92899   0.03472   0.93970   1.000
    N18     N    0.97327   0.56687   0.26150   1.000
    O19     O    0.05792   0.56165   0.30504   1.000
    O20     O    0.08482   0.57689   0.20407   1.000
    O21     O    0.88852   0.56785   0.21979   1.000
    O22     O    0.86092   0.55998   0.31979   1.000
    N23     N    0.97327   0.06688   0.26144   1.000
    O24     O    0.88852   0.06786   0.21976   1.000
    O25     O    0.05792   0.06166   0.30499   1.000
    O26     O    0.86092   0.05999   0.31976   1.000
    O27     O    0.08482   0.07690   0.20404   1.000
    N28     N    0.06857   0.49051   0.80353   1.000
    O29     O    0.92899   0.53471   0.93970   1.000
    O30     O    0.11191   0.52151   0.62817   1.000
    N31     N    0.56863   0.99051   0.80352   1.000
    O32     O    0.42902   0.03472   0.93970   1.000
    O33     O    0.61194   0.02152   0.62817   1.000
    N34     N    0.47327   0.56687   0.26151   1.000
    O35     O    0.55791   0.56165   0.30505   1.000
    O36     O    0.36092   0.55998   0.31979   1.000
    O37     O    0.38852   0.56785   0.21980   1.000
    O38     O    0.58482   0.57689   0.20408   1.000
    N39     N    0.47327   0.06688   0.26150   1.000
    O40     O    0.58482   0.07690   0.20408   1.000
    O41     O    0.55792   0.06166   0.30505   1.000
    O42     O    0.36092   0.05999   0.31979   1.000
    O43     O    0.38852   0.06786   0.21980   1.000
    N44     N    0.72159   0.81647   0.26254   1.000
    O45     O    0.73376   0.91785   0.21848   1.000
    O46     O    0.70628   0.71518   0.30679   1.000
    O47     O    0.71031   0.90592   0.31937   1.000
    O48     O    0.73738   0.72613   0.20671   1.000
    N49     N    0.72160   0.31648   0.26251   1.000
    O50     O    0.73377   0.41785   0.21846   1.000
    O51     O    0.70629   0.21519   0.30677   1.000
    O52     O    0.73739   0.22614   0.20670   1.000
    O53     O    0.71031   0.40593   0.31935   1.000
    N54     N    0.22160   0.31648   0.26253   1.000
    O55     O    0.23739   0.22614   0.20671   1.000
    O56     O    0.20629   0.21519   0.30678   1.000
    O57     O    0.21032   0.40593   0.31934   1.000
    O58     O    0.23377   0.41785   0.21847   1.000
    N59     N    0.22160   0.81647   0.26255   1.000
    O60     O    0.21032   0.90592   0.31937   1.000
    O61     O    0.23739   0.72613   0.20672   1.000
    O62     O    0.20629   0.71518   0.30679   1.000
    O63     O    0.23377   0.91785   0.21848   1.000
loop_
    _geom_bond_atom_site_label_1
    _geom_bond_atom_site_label_2
    _geom_bond_distance
    _geom_bond_site_symmetry_2
    _ccdc_geom_bond_type
    Zr0    O8        1.43405      .   S
    Zr4    O8        1.43405      .   S
    Zr1    O9        1.43405      .   S
    Zr5    O9        1.43405      .   S
    Zr2    O10       1.43405      .   S
    Zr6    O10       1.43405      .   S
    Zr3    O11       1.43405      .   S
    Zr7    O11       1.43405      .   S
    N12    O13       2.22200      .   S
    Zr7    O13       3.22731      .   S
    N12    O14       2.78810      .   S
    Zr1    O14       3.73319  1_554   S
    N15    O16       2.22201  1_565   S
    Zr4    O16       3.22737      .   S
    N15    O17       2.78782  1_465   S
    Zr2    O17       3.73295  1_554   S
    N18    O19       1.77819  1_655   S
    Zr5    O19       2.82624      .   S
    N18    O20       1.92274  1_655   S
    Zr1    O20       2.88153      .   S
    N18    O21       1.77944      .   S
    Zr3    O21       2.82185      .   S
    N18    O22       1.93055      .   S
    Zr7    O22       2.90393      .   S
    N23    O24       1.77922      .   S
    Zr2    O24       2.82162      .   S
    N23    O25       1.77827  1_655   S
    Zr4    O25       2.82664      .   S
    N23    O26       1.93059      .   S
    Zr6    O26       2.90390      .   S
    N23    O27       1.92271  1_655   S
    Zr0    O27       2.88155      .   S
    N28    O29       2.78780  1_455   S
    Zr3    O29       3.73292  1_554   S
    N28    O30       2.22202      .   S
    Zr5    O30       3.22739      .   S
    N31    O32       2.78812  1_565   S
    Zr0    O32       3.73321  1_554   S
    N31    O33       2.22198  1_565   S
    Zr6    O33       3.22729      .   S
    N34    O35       1.77808      .   S
    Zr7    O35       2.82613      .   S
    N34    O36       1.93051      .   S
    Zr5    O36       2.90388      .   S
    N34    O37       1.77944      .   S
    Zr1    O37       2.82184      .   S
    N34    O38       1.92267      .   S
    Zr3    O38       2.88145      .   S
    N39    O40       1.92267      .   S
    Zr2    O40       2.88145      .   S
    N39    O41       1.77809      .   S
    Zr6    O41       2.82614      .   S
    N39    O42       1.93051      .   S
    Zr4    O42       2.90388      .   S
    N39    O43       1.77942      .   S
    Zr0    O43       2.82183      .   S
    N44    O45       1.77115      .   S
    Zr2    O45       2.80106  1_545   S
    N44    O46       1.77984      .   S
    Zr7    O46       2.81508      .   S
    N44    O47       1.94146      .   S
    Zr6    O47       2.91975  1_545   S
    N44    O48       1.93839      .   S
    Zr3    O48       2.92174      .   S
    N49    O50       1.77105      .   S
    Zr3    O50       2.80075      .   S
    N49    O51       1.77984      .   S
    Zr6    O51       2.81508      .   S
    N49    O52       1.93827      .   S
    Zr2    O52       2.92165      .   S
    N49    O53       1.94149      .   S
    Zr7    O53       2.91954      .   S
    N54    O55       1.93836      .   S
    Zr0    O55       2.92173      .   S
    N54    O56       1.77984      .   S
    Zr4    O56       2.81508      .   S
    N54    O57       1.94122      .   S
    Zr5    O57       2.91959      .   S
    N54    O58       1.77105      .   S
    Zr1    O58       2.80076      .   S
    N59    O60       1.94142      .   S
    Zr4    O60       2.91972  1_545   S
    N59    O61       1.93843      .   S
    Zr1    O61       2.92178      .   S
    N59    O62       1.77984      .   S
    Zr5    O62       2.81508      .   S
    N59    O63       1.77115      .   S
    Zr0    O63       2.80106  1_545   S
