# CIF file generated by openbabel 2.4.90, see http://openbabel.sf.net
data_I
_chemical_name_common 'VESTA_phase_1'
_cell_length_a 21.644
_cell_length_b 13.83
_cell_length_c 13.69
_cell_angle_alpha 90.487
_cell_angle_beta 89.967
_cell_angle_gamma 90.27
_space_group_name_H-M_alt 'P 1'
_space_group_name_Hall 'P 1'
loop_
    _symmetry_equiv_pos_as_xyz
    x,y,z
loop_
    _atom_site_label
    _atom_site_type_symbol
    _atom_site_fract_x
    _atom_site_fract_y
    _atom_site_fract_z
    _atom_site_occupancy
    Cu0     Cu   0.37081   0.34141   0.72042   1.000
    Cu1     Cu   0.87136   0.34164   0.72027   1.000
    Cu2     Cu   0.37062   0.15803   0.77953   1.000
    Cu3     Cu   0.86986   0.15796   0.77962   1.000
    Cu4     Cu   0.12022   0.27917   0.84213   1.000
    Cu5     Cu   0.62100   0.27923   0.84203   1.000
    Cu6     Cu   0.12027   0.22066   0.65449   1.000
    Cu7     Cu   0.62111   0.22078   0.65446   1.000
    Cu8     Cu   0.12871   0.65838   0.27960   1.000
    Cu9     Cu   0.62922   0.65861   0.27953   1.000
    Cu10    Cu   0.13017   0.84206   0.22033   1.000
    Cu11    Cu   0.62941   0.84199   0.22043   1.000
    Cu12    Cu   0.37903   0.72079   0.15792   1.000
    Cu13    Cu   0.87981   0.72085   0.15784   1.000
    Cu14    Cu   0.37893   0.77924   0.34550   1.000
    Cu15    Cu   0.87976   0.77936   0.34547   1.000
    H16     H    0.25745   0.47048   0.76930   1.000
    H17     H    0.75775   0.47086   0.76952   1.000
    H18     H    0.25146   0.67980   0.53601   1.000
    H19     H    0.75106   0.67956   0.53573   1.000
    H20     H    0.34274   0.59833   0.46363   1.000
    H21     H    0.84206   0.59770   0.46277   1.000
    H22     H    0.38830   0.45512   0.54739   1.000
    H23     H    0.88781   0.45467   0.54649   1.000
    H24     H    0.20120   0.75686   0.64480   1.000
    H25     H    0.70045   0.75687   0.64433   1.000
    H26     H    0.14022   0.67683   0.60792   1.000
    H27     H    0.63990   0.67571   0.60818   1.000
    H28     H    0.25893   0.02373   0.72944   1.000
    H29     H    0.75787   0.02413   0.72968   1.000
    H30     H    0.25218   0.81719   0.96527   1.000
    H31     H    0.75134   0.81718   0.96515   1.000
    H32     H    0.34157   0.90363   0.03950   1.000
    H33     H    0.84086   0.90337   0.03929   1.000
    H34     H    0.38649   0.04774   0.95530   1.000
    H35     H    0.88576   0.04757   0.95514   1.000
    H36     H    0.20158   0.73637   0.85552   1.000
    H37     H    0.70107   0.73649   0.85535   1.000
    H38     H    0.14207   0.81818   0.89263   1.000
    H39     H    0.64125   0.81768   0.89260   1.000
    H40     H    0.00619   0.22934   0.97248   1.000
    H41     H    0.50702   0.22921   0.97295   1.000
    H42     H    0.99685   0.46420   0.18319   1.000
    H43     H    0.49744   0.46466   0.18290   1.000
    H44     H    0.08854   0.53615   0.10220   1.000
    H45     H    0.58891   0.53679   0.10150   1.000
    H46     H    0.13589   0.45148   0.95831   1.000
    H47     H    0.63627   0.45191   0.95775   1.000
    H48     H    0.44654   0.35818   0.26093   1.000
    H49     H    0.94610   0.35755   0.26078   1.000
    H50     H    0.38716   0.39223   0.17734   1.000
    H51     H    0.88659   0.39211   0.17760   1.000
    H52     H    0.00731   0.27273   0.52517   1.000
    H53     H    0.50831   0.27307   0.52499   1.000
    H54     H    0.99404   0.03860   0.31411   1.000
    H55     H    0.49441   0.03861   0.31442   1.000
    H56     H    0.08489   0.96455   0.39416   1.000
    H57     H    0.58503   0.96411   0.39466   1.000
    H58     H    0.13373   0.04776   0.53798   1.000
    H59     H    0.63407   0.04725   0.53835   1.000
    H60     H    0.44516   0.14676   0.23740   1.000
    H61     H    0.94470   0.14658   0.23721   1.000
    H62     H    0.38550   0.11342   0.32120   1.000
    H63     H    0.88496   0.11290   0.32070   1.000
    H64     H    0.24233   0.52918   0.23046   1.000
    H65     H    0.74257   0.52953   0.23065   1.000
    H66     H    0.24899   0.32046   0.46423   1.000
    H67     H    0.74859   0.32025   0.46396   1.000
    H68     H    0.15800   0.40234   0.53719   1.000
    H69     H    0.65731   0.40174   0.53636   1.000
    H70     H    0.11226   0.54537   0.45347   1.000
    H71     H    0.61174   0.54493   0.45259   1.000
    H72     H    0.29960   0.24315   0.35563   1.000
    H73     H    0.79883   0.24316   0.35517   1.000
    H74     H    0.36015   0.32428   0.39178   1.000
    H75     H    0.85981   0.32321   0.39200   1.000
    H76     H    0.24216   0.97590   0.27028   1.000
    H77     H    0.74109   0.97630   0.27052   1.000
    H78     H    0.24869   0.18285   0.03481   1.000
    H79     H    0.74784   0.18284   0.03469   1.000
    H80     H    0.15917   0.09667   0.96067   1.000
    H81     H    0.65846   0.09639   0.96042   1.000
    H82     H    0.11427   0.95246   0.04481   1.000
    H83     H    0.61354   0.95228   0.04465   1.000
    H84     H    0.29898   0.26353   0.14460   1.000
    H85     H    0.79845   0.26366   0.14443   1.000
    H86     H    0.35879   0.18232   0.10730   1.000
    H87     H    0.85796   0.18184   0.10733   1.000
    H88     H    0.49301   0.77081   0.02699   1.000
    H89     H    0.99384   0.77068   0.02748   1.000
    H90     H    0.50260   0.53534   0.81699   1.000
    H91     H    0.00000   0.53581   0.81678   1.000
    H92     H    0.41114   0.46321   0.89848   1.000
    H93     H    0.91150   0.46387   0.89777   1.000
    H94     H    0.36379   0.54809   0.04223   1.000
    H95     H    0.86414   0.54854   0.04166   1.000
    H96     H    0.05393   0.64246   0.73919   1.000
    H97     H    0.55352   0.64181   0.73903   1.000
    H98     H    0.11344   0.60792   0.82230   1.000
    H99     H    0.61288   0.60778   0.82260   1.000
    H100    H    0.49172   0.72693   0.47498   1.000
    H101    H    0.99271   0.72729   0.47481   1.000
    H102    H    0.50563   0.96140   0.68555   1.000
    H103    H    0.00000   0.96143   0.68585   1.000
    H104    H    0.41501   0.03591   0.60531   1.000
    H105    H    0.91514   0.03549   0.60579   1.000
    H106    H    0.36597   0.95277   0.46161   1.000
    H107    H    0.86630   0.95228   0.46197   1.000
    H108    H    0.05533   0.85345   0.76276   1.000
    H109    H    0.55490   0.85325   0.76252   1.000
    H110    H    0.11507   0.88712   0.67918   1.000
    H111    H    0.61455   0.88658   0.67865   1.000
    C112    C    0.26252   0.29293   0.86958   1.000
    C113    C    0.76311   0.29350   0.86960   1.000
    C114    C    0.27583   0.50051   0.70181   1.000
    C115    C    0.77593   0.50067   0.70180   1.000
    C116    C    0.24837   0.58236   0.66052   1.000
    C117    C    0.74837   0.58245   0.66050   1.000
    C118    C    0.27168   0.61808   0.57260   1.000
    C119    C    0.77137   0.61788   0.57227   1.000
    C120    C    0.32270   0.57187   0.53140   1.000
    C121    C    0.82222   0.57146   0.53070   1.000
    C122    C    0.34812   0.49228   0.57714   1.000
    C123    C    0.84776   0.49197   0.57653   1.000
    C124    C    0.16817   0.70184   0.67027   1.000
    C125    C    0.66780   0.70151   0.67020   1.000
    C126    C    0.26260   0.20578   0.62932   1.000
    C127    C    0.76324   0.20632   0.62879   1.000
    C128    C    0.27670   0.99544   0.79795   1.000
    C129    C    0.77572   0.99569   0.79808   1.000
    C130    C    0.24958   0.91304   0.83960   1.000
    C131    C    0.74864   0.91322   0.83964   1.000
    C132    C    0.27215   0.87942   0.92866   1.000
    C133    C    0.77130   0.87944   0.92859   1.000
    C134    C    0.32208   0.92837   0.97080   1.000
    C135    C    0.82131   0.92826   0.97067   1.000
    C136    C    0.34717   0.00843   0.92476   1.000
    C137    C    0.84636   0.00839   0.92468   1.000
    C138    C    0.16935   0.79208   0.83008   1.000
    C139    C    0.66862   0.79194   0.83000   1.000
    C140    C    0.01220   0.13126   0.79169   1.000
    C141    C    0.51290   0.13155   0.79140   1.000
    C142    C    0.02391   0.29706   0.00302   1.000
    C143    C    0.52464   0.29710   0.00324   1.000
    C144    C    0.99546   0.33897   0.08521   1.000
    C145    C    0.49618   0.33914   0.08537   1.000
    C146    C    0.01794   0.42720   0.12132   1.000
    C147    C    0.51853   0.42758   0.12115   1.000
    C148    C    0.06916   0.46815   0.07531   1.000
    C149    C    0.56961   0.46863   0.07486   1.000
    C150    C    0.09557   0.42184   0.99538   1.000
    C151    C    0.59604   0.42220   0.99502   1.000
    C152    C    0.41452   0.33130   0.20438   1.000
    C153    C    0.91394   0.33099   0.20429   1.000
    C154    C    0.01349   0.36876   0.70681   1.000
    C155    C    0.51318   0.36819   0.70692   1.000
    C156    C    0.02397   0.20470   0.49442   1.000
    C157    C    0.52477   0.20486   0.49440   1.000
    C158    C    0.99473   0.16359   0.41237   1.000
    C159    C    0.49539   0.16378   0.41247   1.000
    C160    C    0.01585   0.07498   0.37588   1.000
    C161    C    0.51629   0.07497   0.37614   1.000
    C162    C    0.06657   0.03285   0.42140   1.000
    C163    C    0.56689   0.03259   0.42176   1.000
    C164    C    0.09381   0.07838   0.50123   1.000
    C165    C    0.59425   0.07808   0.50151   1.000
    C166    C    0.41362   0.17396   0.29432   1.000
    C167    C    0.91303   0.17358   0.29402   1.000
    C168    C    0.23693   0.70654   0.13034   1.000
    C169    C    0.73751   0.70708   0.13039   1.000
    C170    C    0.22415   0.49937   0.29817   1.000
    C171    C    0.72420   0.49952   0.29815   1.000
    C172    C    0.25170   0.41758   0.33947   1.000
    C173    C    0.75166   0.41768   0.33944   1.000
    C174    C    0.22869   0.38214   0.42770   1.000
    C175    C    0.72836   0.38196   0.42737   1.000
    C176    C    0.17785   0.42858   0.46920   1.000
    C177    C    0.67734   0.42818   0.46858   1.000
    C178    C    0.15232   0.50807   0.42344   1.000
    C179    C    0.65193   0.50777   0.42284   1.000
    C180    C    0.33225   0.29849   0.32968   1.000
    C181    C    0.83186   0.29819   0.32969   1.000
    C182    C    0.23680   0.79373   0.37118   1.000
    C183    C    0.73743   0.79423   0.37064   1.000
    C184    C    0.22431   0.00434   0.20188   1.000
    C185    C    0.72332   0.00459   0.20200   1.000
    C186    C    0.25139   0.08681   0.16032   1.000
    C187    C    0.75044   0.08699   0.16030   1.000
    C188    C    0.22873   0.12059   0.07137   1.000
    C189    C    0.72788   0.12061   0.07129   1.000
    C190    C    0.17873   0.07177   0.02929   1.000
    C191    C    0.67794   0.07165   0.02915   1.000
    C192    C    0.15367   0.99165   0.07527   1.000
    C193    C    0.65286   0.99159   0.07500   1.000
    C194    C    0.33142   0.20807   0.16990   1.000
    C195    C    0.83068   0.20794   0.16988   1.000
    C196    C    0.48713   0.86847   0.20854   1.000
    C197    C    0.98783   0.86876   0.20820   1.000
    C198    C    0.47540   0.70291   0.99671   1.000
    C199    C    0.97612   0.70297   0.99694   1.000
    C200    C    0.50386   0.66087   0.91458   1.000
    C201    C    0.00000   0.66105   0.91475   1.000
    C202    C    0.48152   0.57242   0.87880   1.000
    C203    C    0.98209   0.57281   0.87864   1.000
    C204    C    0.43043   0.53137   0.92511   1.000
    C205    C    0.93088   0.53187   0.92466   1.000
    C206    C    0.40401   0.57781   0.00496   1.000
    C207    C    0.90446   0.57817   0.00458   1.000
    C208    C    0.08609   0.66903   0.79567   1.000
    C209    C    0.58552   0.66870   0.79558   1.000
    C210    C    0.48684   0.63183   0.29303   1.000
    C211    C    0.98658   0.63128   0.29310   1.000
    C212    C    0.47527   0.79515   0.50556   1.000
    C213    C    0.97605   0.79532   0.50555   1.000
    C214    C    0.50464   0.83623   0.58750   1.000
    C215    C    0.00000   0.83643   0.58760   1.000
    C216    C    0.48375   0.92504   0.62383   1.000
    C217    C    0.98418   0.92504   0.62409   1.000
    C218    C    0.43315   0.96743   0.57821   1.000
    C219    C    0.93346   0.96718   0.57856   1.000
    C220    C    0.40579   0.92193   0.49846   1.000
    C221    C    0.90622   0.92165   0.49873   1.000
    C222    C    0.08700   0.82644   0.70595   1.000
    C223    C    0.58643   0.82604   0.70563   1.000
    C224    C    0.12766   0.74731   0.75055   1.000
    C225    C    0.62709   0.74696   0.75038   1.000
    C226    C    0.37296   0.25305   0.24958   1.000
    C227    C    0.87237   0.25272   0.24941   1.000
    S228    S    0.33883   0.29613   0.87780   1.000
    S229    S    0.83941   0.29646   0.87772   1.000
    S230    S    0.33893   0.20237   0.62201   1.000
    S231    S    0.83955   0.20259   0.62174   1.000
    S232    S    0.08850   0.12332   0.79310   1.000
    S233    S    0.58919   0.12337   0.79297   1.000
    S234    S    0.08981   0.37664   0.70420   1.000
    S235    S    0.58951   0.37638   0.70418   1.000
    S236    S    0.16063   0.70357   0.12222   1.000
    S237    S    0.66120   0.70390   0.12216   1.000
    S238    S    0.16048   0.79746   0.37821   1.000
    S239    S    0.66110   0.79765   0.37790   1.000
    S240    S    0.41084   0.87665   0.20699   1.000
    S241    S    0.91153   0.87670   0.20683   1.000
    S242    S    0.41052   0.62365   0.29578   1.000
    S243    S    0.91026   0.62340   0.29570   1.000
    N244    N    0.20789   0.29012   0.86559   1.000
    N245    N    0.70849   0.29076   0.86555   1.000
    N246    N    0.32485   0.45630   0.66130   1.000
    N247    N    0.82480   0.45626   0.66108   1.000
    N248    N    0.20798   0.20888   0.63257   1.000
    N249    N    0.70863   0.20967   0.63200   1.000
    N250    N    0.32467   0.04225   0.83928   1.000
    N251    N    0.82377   0.04238   0.83930   1.000
    N252    N    0.45829   0.13573   0.78983   1.000
    N253    N    0.95760   0.13523   0.79019   1.000
    N254    N    0.07310   0.33733   0.95888   1.000
    N255    N    0.57370   0.33746   0.95884   1.000
    N256    N    0.45855   0.36415   0.70940   1.000
    N257    N    0.95888   0.36471   0.70929   1.000
    N258    N    0.07263   0.16328   0.53807   1.000
    N259    N    0.57331   0.16321   0.53814   1.000
    N260    N    0.29155   0.70928   0.13439   1.000
    N261    N    0.79214   0.70988   0.13438   1.000
    N262    N    0.17528   0.54377   0.33888   1.000
    N263    N    0.67518   0.54373   0.33860   1.000
    N264    N    0.29141   0.79039   0.36794   1.000
    N265    N    0.79205   0.79112   0.36739   1.000
    N266    N    0.17626   0.95765   0.16062   1.000
    N267    N    0.67535   0.95778   0.16068   1.000
    N268    N    0.04243   0.86479   0.20970   1.000
    N269    N    0.54174   0.86429   0.21013   1.000
    N270    N    0.42634   0.66256   0.04112   1.000
    N271    N    0.92693   0.66269   0.04108   1.000
    N272    N    0.04119   0.63531   0.29067   1.000
    N273    N    0.54147   0.63587   0.29051   1.000
    N274    N    0.42673   0.83680   0.46182   1.000
    N275    N    0.92739   0.83675   0.46189   1.000
    O276    O    0.20033   0.62113   0.71215   1.000
    O277    O    0.70058   0.62153   0.71248   1.000
    O278    O    0.20263   0.87159   0.78711   1.000
    O279    O    0.70161   0.87185   0.78724   1.000
    O280    O    0.44823   0.28779   0.12461   1.000
    O281    O    0.94740   0.28773   0.12417   1.000
    O282    O    0.44808   0.21638   0.37409   1.000
    O283    O    0.94732   0.21596   0.37400   1.000
    O284    O    0.29949   0.37849   0.28749   1.000
    O285    O    0.79969   0.37889   0.28780   1.000
    O286    O    0.29842   0.12817   0.21272   1.000
    O287    O    0.79739   0.12844   0.21285   1.000
    O288    O    0.05263   0.71229   0.87579   1.000
    O289    O    0.55180   0.71222   0.87533   1.000
    O290    O    0.05270   0.78406   0.62598   1.000
    O291    O    0.55195   0.78362   0.62588   1.000
loop_
    _geom_bond_atom_site_label_1
    _geom_bond_atom_site_label_2
    _geom_bond_distance
    _geom_bond_site_symmetry_2
    _ccdc_geom_bond_type
    C142   C144      1.40453  1_455   S
    C142   N254      1.34460  1_554   S
    C142   H40       1.09043  1_554   S
    C143   C145      1.40474      .   S
    C143   N255      1.34460  1_554   S
    C143   H41       1.09046  1_554   S
    C207   N271      1.35559      .   S
    C207   H95       1.08945      .   S
    C207   C205      1.38744  1_554   S
    C206   N270      1.35553      .   S
    C206   H94       1.08941      .   S
    C206   C204      1.38760  1_554   S
    H88    C198      1.09046  1_554   S
    H89    C199      1.09045  1_554   S
    C191   C189      1.39515      .   S
    C191   C193      1.38586  1_545   S
    C191   H81       1.08972  1_554   S
    C190   C188      1.39516      .   S
    C190   C192      1.38709  1_545   S
    C190   H80       1.08974  1_554   S
    H79    C189      1.08727      .   S
    H78    C188      1.08726      .   S
    H33    C135      1.08974  1_554   S
    H32    C134      1.08937  1_554   S
    N271   Cu13      2.05581      .   S
    N271   C199      1.34462  1_554   S
    N270   Cu12      2.05862      .   S
    N270   C198      1.34462  1_554   S
    H83    C193      1.08845      .   S
    H82    C192      1.08944      .   S
    C189   C187      1.39713      .   S
    C188   C186      1.39789      .   S
    C149   H45       1.08931      .   S
    C149   C147      1.39492      .   S
    C149   C151      1.38745  1_554   S
    C193   N267      1.35777      .   S
    C192   N266      1.35558      .   S
    C148   H44       1.08926      .   S
    C148   C146      1.39486      .   S
    C148   C150      1.38751  1_554   S
    C144   C146      1.39804  1_655   S
    C144   O281      1.36660      .   S
    C145   C147      1.39805      .   S
    C145   O280      1.36694      .   S
    H86    C194      1.09929      .   S
    H87    C195      1.09920      .   S
    C147   H43       1.08636      .   S
    C146   H42       1.08718  1_455   S
    S237   C169      1.65595      .   S
    S237   Cu11      2.42871      .   S
    S237   Cu9       2.35159      .   S
    S236   C168      1.65553      .   S
    S236   Cu10      2.42371      .   S
    S236   Cu8       2.35093      .   S
    O281   C153      1.44136      .   S
    O280   C152      1.44190      .   S
    C168   N260      1.18390      .   S
    C169   N261      1.18401      .   S
    N261   Cu13      1.92975      .   S
    N260   Cu12      1.92645      .   S
    H85    C195      1.10077      .   S
    H84    C194      1.10044      .   S
    Cu13   S241      2.35138      .   S
    Cu13   S243      2.42201      .   S
    Cu13   Cu15      2.68651      .   S
    Cu12   S240      2.35232      .   S
    Cu12   S242      2.42582      .   S
    Cu12   Cu14      2.68563      .   S
    C187   C185      1.40477      .   S
    C187   O287      1.36649      .   S
    C186   C184      1.40450      .   S
    C186   O286      1.36620      .   S
    N266   C184      1.34377  1_565   S
    N266   Cu10      2.05551      .   S
    N267   C185      1.34362  1_565   S
    N267   Cu11      2.05634      .   S
    C195   O287      1.44121      .   S
    C195   C227      1.53866      .   S
    C194   O286      1.44148      .   S
    C194   C226      1.53928      .   S
    H50    C152      1.09915      .   S
    H51    C153      1.09935      .   S
    C184   H76       1.09030  1_545   S
    C185   H77       1.09033  1_545   S
    C153   C227      1.53769      .   S
    C153   H49       1.10043      .   S
    C152   C226      1.53791      .   S
    C152   H48       1.10037      .   S
    S241   C197      1.65571      .   S
    S241   Cu15      2.43329      .   S
    S240   C196      1.65578      .   S
    S240   Cu14      2.43325      .   S
    C197   N268      1.18358  1_655   S
    C196   N269      1.18384      .   S
    N268   Cu10      1.93201      .   S
    N269   Cu11      1.92931      .   S
    Cu10   Cu8       2.67328      .   S
    Cu10   S238      2.34748      .   S
    Cu11   Cu9       2.66858      .   S
    Cu11   S239      2.34991      .   S
    H64    C170      1.09026      .   S
    H65    C171      1.09031      .   S
    H61    C167      1.10045      .   S
    H60    C166      1.10072      .   S
    C227   C167      1.53825      .   S
    C227   C181      1.53772      .   S
    C226   C166      1.53847      .   S
    C226   C180      1.53829      .   S
    Cu9    N273      1.92955      .   S
    Cu9    N263      2.05080      .   S
    Cu9    S239      2.43552      .   S
    Cu8    N272      1.92567      .   S
    Cu8    N262      2.05540      .   S
    Cu8    S238      2.43705      .   S
    O284   C180      1.44190      .   S
    O284   C172      1.36610      .   S
    O285   C181      1.44145      .   S
    O285   C173      1.36609      .   S
    N273   C210      1.18390      .   S
    N272   C211      1.18347  1_455   S
    C210   S242      1.65581      .   S
    C211   S243      1.65527      .   S
    C167   H63       1.09870      .   S
    C167   O283      1.44190      .   S
    C166   H62       1.09862      .   S
    C166   O282      1.44193      .   S
    S243   Cu15      2.35381      .   S
    S242   Cu14      2.35577      .   S
    C171   N263      1.34378      .   S
    C171   C173      1.40415      .   S
    C170   N262      1.34395      .   S
    C170   C172      1.40446      .   S
    H54    C160      1.08722  1_655   S
    H55    C161      1.08717      .   S
    C180   H72       1.10039      .   S
    C180   H74       1.09912      .   S
    C181   H73       1.10039      .   S
    C181   H75       1.09870      .   S
    N263   C179      1.35554      .   S
    N262   C178      1.35559      .   S
    C173   C175      1.39797      .   S
    C172   C174      1.39793      .   S
    Cu15   N265      1.92910      .   S
    Cu15   N275      2.05078      .   S
    Cu14   N264      1.92553      .   S
    Cu14   N274      2.05245      .   S
    N265   C183      1.18400      .   S
    N264   C182      1.18391      .   S
    C183   S239      1.65596      .   S
    C182   S238      1.65548      .   S
    O283   C158      1.36661      .   S
    O282   C159      1.36681      .   S
    C160   C158      1.39814  1_455   S
    C160   C162      1.39504      .   S
    C161   C159      1.39822      .   S
    C161   C163      1.39511      .   S
    H56    C162      1.08904  1_565   S
    H57    C163      1.08904  1_565   S
    C158   C156      1.40424  1_655   S
    C159   C157      1.40411      .   S
    C162   C164      1.38709      .   S
    C163   C165      1.38712      .   S
    C179   H71       1.08941      .   S
    C179   C177      1.38709      .   S
    C178   H70       1.08941      .   S
    C178   C176      1.38721      .   S
    C175   H67       1.08720      .   S
    C175   C177      1.39498      .   S
    C174   H66       1.08722      .   S
    C174   C176      1.39497      .   S
    H106   C220      1.08943      .   S
    N274   C220      1.35567      .   S
    N274   C212      1.34406      .   S
    N275   C221      1.35572      .   S
    N275   C213      1.34423      .   S
    H107   C221      1.08939      .   S
    H21    C121      1.08848      .   S
    H20    C120      1.08932      .   S
    C177   H69       1.08933      .   S
    C176   H68       1.08923      .   S
    H101   C213      1.09023      .   S
    H100   C212      1.09020      .   S
    C157   H53       1.09025      .   S
    C157   N259      1.34408      .   S
    C156   H52       1.09025      .   S
    C156   N258      1.34421      .   S
    C220   C218      1.38712      .   S
    C221   C219      1.38708      .   S
    C164   H58       1.08936      .   S
    C164   N258      1.35570      .   S
    C165   N259      1.35561      .   S
    C165   H59       1.08937      .   S
    C213   C215      1.35666  1_655   S
    C212   C214      1.40423      .   S
    C121   C119      1.39534      .   S
    C121   C123      1.38765      .   S
    C120   C118      1.39497      .   S
    C120   C122      1.38713      .   S
    H19    C119      1.08727      .   S
    H18    C118      1.08720      .   S
    N258   Cu6       2.05080      .   S
    N259   Cu7       2.05242      .   S
    H23    C123      1.08946      .   S
    H22    C122      1.08943      .   S
    C119   C117      1.39788      .   S
    C118   C116      1.39800      .   S
    C123   N247      1.35543      .   S
    C122   N246      1.35475      .   S
    C218   H104      1.08905  1_565   S
    C218   C216      1.39510      .   S
    C219   H105      1.08902  1_565   S
    C219   C217      1.39505      .   S
    C214   C216      1.39821      .   S
    C214   O291      1.36680      .   S
    C215   C217      1.36458  1_455   S
    C215   O290      1.45487      .   S
    H26    C124      1.09908      .   S
    H27    C125      1.09830      .   S
    S231   C127      1.65550      .   S
    S231   Cu1       2.43648      .   S
    S231   Cu3       2.34751      .   S
    S230   C126      1.65597      .   S
    S230   Cu0       2.43577      .   S
    S230   Cu2       2.35053      .   S
    C216   H102      1.08716      .   S
    C217   H103      1.03771  1_655   S
    O291   C223      1.44188      .   S
    O290   C222      1.44190      .   S
    C127   N249      1.18390      .   S
    C126   N248      1.18401      .   S
    N249   Cu7       1.92564      .   S
    N248   Cu6       1.92913      .   S
    H25    C125      1.10002      .   S
    H24    C124      1.10037      .   S
    Cu7    S235      2.35580      .   S
    Cu7    S233      2.43325      .   S
    Cu7    Cu5       2.68549      .   S
    Cu6    S234      2.35356      .   S
    Cu6    S232      2.43291      .   S
    Cu6    Cu4       2.68664      .   S
    C117   C115      1.40445      .   S
    C117   O277      1.36612      .   S
    C116   C114      1.40416      .   S
    C116   O276      1.36607      .   S
    N247   C115      1.34399      .   S
    N247   Cu1       2.05503      .   S
    N246   C114      1.34417      .   S
    N246   Cu0       2.05112      .   S
    C125   O277      1.44241      .   S
    C125   C225      1.53914      .   S
    C124   O276      1.44143      .   S
    C124   C224      1.53769      .   S
    H111   C223      1.09901      .   S
    H110   C222      1.09907      .   S
    C115   H17       1.09032      .   S
    C114   H16       1.09029      .   S
    S235   C155      1.65581      .   S
    S235   Cu5       2.42578      .   S
    S234   C154      1.65527      .   S
    S234   Cu4       2.42265      .   S
    C223   C225      1.53851      .   S
    C223   H109      1.10038      .   S
    C222   C224      1.53822      .   S
    C222   H108      1.10040      .   S
    C154   N257      1.18350  1_455   S
    C155   N256      1.18389      .   S
    N257   Cu1       1.92549      .   S
    N256   Cu0       1.92963      .   S
    Cu1    Cu3       2.67363      .   S
    Cu1    S229      2.35202      .   S
    Cu0    Cu2       2.66862      .   S
    Cu0    S228      2.35166      .   S
    H28    C128      1.09025  1_545   S
    H29    C129      1.09030  1_545   S
    H97    C209      1.10033      .   S
    H96    C208      1.10033      .   S
    C225   C209      1.53789      .   S
    C225   C139      1.53870      .   S
    C224   C208      1.53767      .   S
    C224   C138      1.53867      .   S
    Cu2    N252      1.92937      .   S
    Cu2    N250      2.05631      .   S
    Cu2    S228      2.42869      .   S
    Cu3    N253      1.93197      .   S
    Cu3    N251      2.05528      .   S
    Cu3    S229      2.42367      .   S
    O278   C138      1.44121      .   S
    O278   C130      1.36607      .   S
    O279   C139      1.44116      .   S
    O279   C131      1.36621      .   S
    N252   C141      1.18382      .   S
    N253   C140      1.18358  1_655   S
    C141   S233      1.65581      .   S
    C140   S232      1.65574      .   S
    S233   Cu5       2.35227      .   S
    S232   Cu4       2.35144      .   S
    C209   H99       1.09896      .   S
    C209   O289      1.44191      .   S
    C208   H98       1.09906      .   S
    C208   O288      1.44140      .   S
    C128   N250      1.34367  1_565   S
    C128   C130      1.40450      .   S
    C129   N251      1.34358  1_565   S
    C129   C131      1.40448      .   S
    H91    C203      1.05989  1_455   S
    H90    C202      1.08700      .   S
    C139   H37       1.10067      .   S
    C139   H39       1.09927      .   S
    C138   H36       1.10075      .   S
    C138   H38       1.09916      .   S
    N250   C136      1.35543      .   S
    N251   C137      1.35595      .   S
    C130   C132      1.39775      .   S
    C131   C133      1.39790      .   S
    Cu5    N245      1.92653      .   S
    Cu5    N255      2.05859      .   S
    Cu4    N244      1.92978      .   S
    Cu4    N254      2.05576      .   S
    N245   C113      1.18392      .   S
    N244   C112      1.18401      .   S
    C112   S228      1.65595      .   S
    C113   S229      1.65551      .   S
    O289   C200      1.36694      .   S
    O288   C201      1.44299      .   S
    C203   C201      1.36721  1_655   S
    C203   C205      1.39491      .   S
    C202   C200      1.39808      .   S
    C202   C204      1.39501      .   S
    H93    C205      1.08930      .   S
    H92    C204      1.08929      .   S
    C200   C198      1.40475      .   S
    C201   C199      1.36398  1_455   S
    C137   H35       1.08947      .   S
    C137   C135      1.38712  1_545   S
    C136   H34       1.08945      .   S
    C136   C134      1.38704  1_545   S
    C133   H31       1.08725      .   S
    C133   C135      1.39518      .   S
    C132   H30       1.08733      .   S
    C132   C134      1.39516      .   S
    H47    C151      1.08946      .   S
    H46    C150      1.08938      .   S
    N255   C151      1.35557      .   S
    N254   C150      1.35556      .   S
