# CIF file generated by openbabel 2.4.90, see http://openbabel.sf.net
data_I
_chemical_name_common ''
_cell_length_a 17.005
_cell_length_b 18.735
_cell_length_c 19.368
_cell_angle_alpha 90.005
_cell_angle_beta 90.013
_cell_angle_gamma 101.51
_space_group_name_H-M_alt 'P 1'
_space_group_name_Hall 'P 1'
loop_
    _symmetry_equiv_pos_as_xyz
    x,y,z
loop_
    _atom_site_label
    _atom_site_type_symbol
    _atom_site_fract_x
    _atom_site_fract_y
    _atom_site_fract_z
    _atom_site_occupancy
    Lv0     Lv   0.45295   0.74606   0.36660   1.000
    Lv1     Lv   0.78325   0.21423   0.25964   1.000
    Lv2     Lv   0.21662   0.28578   0.75963   1.000
    Lv3     Lv   0.04698   0.75398   0.86659   1.000
    Lv4     Lv   0.71661   0.28577   0.75965   1.000
    Lv5     Lv   0.28325   0.21427   0.25968   1.000
    Lv6     Lv   0.54692   0.25392   0.63349   1.000
    Lv7     Lv   0.95294   0.74605   0.36662   1.000
    Lv8     Lv   0.21664   0.78576   0.74044   1.000
    Lv9     Lv   0.45290   0.24605   0.13312   1.000
    Lv10    Lv   0.71663   0.78578   0.74044   1.000
    Lv11    Lv   0.95288   0.24603   0.13311   1.000
    Lv12    Lv   0.54697   0.75398   0.86661   1.000
    Lv13    Lv   0.28326   0.71425   0.24044   1.000
    Lv14    Lv   0.04691   0.25394   0.63347   1.000
    Lv15    Lv   0.78328   0.71427   0.24044   1.000
