# CIF file generated by openbabel 2.4.90, see http://openbabel.sf.net
data_I
_chemical_name_common ''
_cell_length_a 17.005
_cell_length_b 18.735
_cell_length_c 19.368
_cell_angle_alpha 90.005
_cell_angle_beta 90.013
_cell_angle_gamma 101.51
_space_group_name_H-M_alt 'P 1'
_space_group_name_Hall 'P 1'
loop_
    _symmetry_equiv_pos_as_xyz
    x,y,z
loop_
    _atom_site_label
    _atom_site_type_symbol
    _atom_site_fract_x
    _atom_site_fract_y
    _atom_site_fract_z
    _atom_site_occupancy
    H0      H    0.42471   0.30203   0.42263   1.000
    H1      H    0.92465   0.30192   0.42265   1.000
    H2      H    0.39754   0.20631   0.33068   1.000
    H3      H    0.89759   0.20631   0.33059   1.000
    H4      H    0.22819   0.38951   0.34124   1.000
    H5      H    0.72823   0.38950   0.34119   1.000
    H6      H    0.35259   0.11803   0.26098   1.000
    H7      H    0.85259   0.11799   0.26093   1.000
    H8      H    0.30206   0.02932   0.16857   1.000
    H9      H    0.80202   0.02927   0.16854   1.000
    H10     H    0.14127   0.15252   0.09908   1.000
    H11     H    0.64119   0.15246   0.09910   1.000
    H12     H    0.18325   0.24632   0.19024   1.000
    H13     H    0.68324   0.24629   0.19021   1.000
    H14     H    0.07658   0.56925   0.76663   1.000
    H15     H    0.57658   0.56929   0.76657   1.000
    H16     H    0.12450   0.66265   0.85847   1.000
    H17     H    0.62452   0.66265   0.85844   1.000
    H18     H    0.38627   0.68268   0.72288   1.000
    H19     H    0.88632   0.68269   0.72281   1.000
    H20     H    0.12290   0.72228   0.95741   1.000
    H21     H    0.62292   0.72229   0.95741   1.000
    H22     H    0.16172   0.82681   0.03757   1.000
    H23     H    0.66165   0.82678   0.03763   1.000
    H24     H    0.03673   0.95508   0.92280   1.000
    H25     H    0.53669   0.95507   0.92288   1.000
    H26     H    0.49188   0.85552   0.83893   1.000
    H27     H    0.99186   0.85552   0.83891   1.000
    H28     H    0.07518   0.19802   0.92253   1.000
    H29     H    0.57517   0.19800   0.92255   1.000
    H30     H    0.10226   0.29368   0.83054   1.000
    H31     H    0.60228   0.29369   0.83059   1.000
    H32     H    0.27173   0.11057   0.84119   1.000
    H33     H    0.77170   0.11054   0.84119   1.000
    H34     H    0.14730   0.38205   0.76091   1.000
    H35     H    0.64727   0.38204   0.76094   1.000
    H36     H    0.19790   0.47077   0.66856   1.000
    H37     H    0.69784   0.47074   0.66857   1.000
    H38     H    0.35866   0.34752   0.59915   1.000
    H39     H    0.85862   0.34751   0.59916   1.000
    H40     H    0.31655   0.25368   0.69021   1.000
    H41     H    0.81657   0.25370   0.69020   1.000
    H42     H    0.42340   0.93077   0.26662   1.000
    H43     H    0.92350   0.93085   0.26670   1.000
    H44     H    0.37546   0.83741   0.35844   1.000
    H45     H    0.87551   0.83745   0.35850   1.000
    H46     H    0.11356   0.81721   0.22283   1.000
    H47     H    0.61365   0.81733   0.22293   1.000
    H48     H    0.37699   0.77776   0.45736   1.000
    H49     H    0.87703   0.77778   0.45738   1.000
    H50     H    0.33821   0.67327   0.53756   1.000
    H51     H    0.83814   0.67329   0.53755   1.000
    H52     H    0.46317   0.54496   0.42284   1.000
    H53     H    0.96314   0.54495   0.42291   1.000
    H54     H    0.00805   0.64447   0.33899   1.000
    H55     H    0.50805   0.64451   0.33895   1.000
    H56     H    0.07511   0.69802   0.57750   1.000
    H57     H    0.57518   0.69805   0.57748   1.000
    H58     H    0.10230   0.79368   0.66955   1.000
    H59     H    0.60226   0.79369   0.66951   1.000
    H60     H    0.27169   0.61053   0.65880   1.000
    H61     H    0.77167   0.61054   0.65889   1.000
    H62     H    0.14735   0.88199   0.73912   1.000
    H63     H    0.64728   0.88203   0.73918   1.000
    H64     H    0.19789   0.97073   0.83150   1.000
    H65     H    0.69790   0.97076   0.83155   1.000
    H66     H    0.35867   0.84753   0.90103   1.000
    H67     H    0.85872   0.84754   0.90097   1.000
    H68     H    0.31664   0.75369   0.80992   1.000
    H69     H    0.81660   0.75370   0.80987   1.000
    H70     H    0.42327   0.43071   0.23358   1.000
    H71     H    0.92332   0.43074   0.23355   1.000
    H72     H    0.37533   0.33735   0.14172   1.000
    H73     H    0.87534   0.33738   0.14169   1.000
    H74     H    0.11359   0.31728   0.27724   1.000
    H75     H    0.61359   0.31733   0.27726   1.000
    H76     H    0.37696   0.27775   0.04272   1.000
    H77     H    0.87689   0.27770   0.04270   1.000
    H78     H    0.33822   0.17326   0.96250   1.000
    H79     H    0.83820   0.17320   0.96248   1.000
    H80     H    0.46318   0.04496   0.07723   1.000
    H81     H    0.96317   0.04494   0.07725   1.000
    H82     H    0.00802   0.14452   0.16118   1.000
    H83     H    0.50803   0.14452   0.16117   1.000
    H84     H    0.42467   0.80197   0.07751   1.000
    H85     H    0.92472   0.80198   0.07750   1.000
    H86     H    0.39759   0.70632   0.16950   1.000
    H87     H    0.89763   0.70636   0.16956   1.000
    H88     H    0.22820   0.88948   0.15891   1.000
    H89     H    0.72825   0.88953   0.15888   1.000
    H90     H    0.35261   0.61799   0.23919   1.000
    H91     H    0.85259   0.61803   0.23913   1.000
    C92     C    0.94594   0.71986   0.39010   1.000
    C93     C    0.39733   0.72717   0.44730   1.000
    C94     C    0.89733   0.72717   0.44732   1.000
    C95     C    0.37547   0.66909   0.49256   1.000
    H96     H    0.30199   0.52926   0.33152   1.000
    H97     H    0.80205   0.52931   0.33149   1.000
    H98     H    0.14123   0.65252   0.40093   1.000
    H99     H    0.64126   0.65252   0.40094   1.000
    H100    H    0.18333   0.74635   0.30986   1.000
    H101    H    0.68329   0.74633   0.30985   1.000
    H102    H    0.07644   0.06918   0.73340   1.000
    H103    H    0.57649   0.06922   0.73350   1.000
    H104    H    0.12438   0.16259   0.64161   1.000
    H105    H    0.62443   0.16258   0.64166   1.000
    H106    H    0.38630   0.18271   0.77724   1.000
    H107    H    0.88633   0.18274   0.77731   1.000
    H108    H    0.12279   0.22221   0.54274   1.000
    H109    H    0.62284   0.22221   0.54273   1.000
    H110    H    0.16164   0.32670   0.46255   1.000
    H111    H    0.66158   0.32666   0.46249   1.000
    H112    H    0.03668   0.45504   0.57724   1.000
    H113    H    0.53664   0.45500   0.57721   1.000
    H114    H    0.49181   0.35547   0.66114   1.000
    H115    H    0.99181   0.35552   0.66118   1.000
    C116    C    0.32753   0.35255   0.39020   1.000
    C117    C    0.82752   0.35249   0.39019   1.000
    C118    C    0.37570   0.30020   0.38596   1.000
    C119    C    0.87568   0.30014   0.38595   1.000
    C120    C    0.35996   0.24689   0.33482   1.000
    C121    C    0.85999   0.24687   0.33476   1.000
    C122    C    0.37568   0.80016   0.11410   1.000
    C123    C    0.87573   0.80018   0.11420   1.000
    C124    C    0.36000   0.74688   0.16534   1.000
    C125    C    0.86003   0.74692   0.16537   1.000
    C126    C    0.29630   0.74690   0.21155   1.000
    C127    C    0.29623   0.24690   0.28861   1.000
    C128    C    0.79627   0.24690   0.28854   1.000
    C129    C    0.26711   0.34979   0.34047   1.000
    C130    C    0.76714   0.34976   0.34040   1.000
    C131    C    0.27226   0.19115   0.23391   1.000
    C132    C    0.77227   0.19113   0.23386   1.000
    C133    C    0.30532   0.12861   0.22684   1.000
    C134    C    0.80531   0.12857   0.22680   1.000
    C135    C    0.27734   0.07827   0.17519   1.000
    C136    C    0.77731   0.07822   0.17516   1.000
    C137    C    0.18784   0.14725   0.13630   1.000
    C138    C    0.68779   0.14720   0.13629   1.000
    C139    C    0.21213   0.19967   0.18654   1.000
    C140    C    0.71212   0.19964   0.18651   1.000
    C141    C    0.47790   0.61889   0.73754   1.000
    C142    C    0.97789   0.61886   0.73754   1.000
    C143    C    0.04492   0.61321   0.77735   1.000
    C144    C    0.54491   0.61323   0.77733   1.000
    C145    C    0.07082   0.66489   0.82848   1.000
    C146    C    0.57082   0.66489   0.82847   1.000
    C147    C    0.02893   0.72147   0.83878   1.000
    C148    C    0.52893   0.72148   0.83879   1.000
    C149    C    0.43946   0.67686   0.75201   1.000
    C150    C    0.93948   0.67686   0.75197   1.000
    C151    C    0.05396   0.78017   0.89018   1.000
    C152    C    0.55397   0.78017   0.89018   1.000
    C153    C    0.10257   0.77288   0.94734   1.000
    C154    C    0.60258   0.77288   0.94730   1.000
    C155    C    0.12444   0.83097   0.99257   1.000
    C156    C    0.62440   0.83096   0.99261   1.000
    C157    C    0.05440   0.90272   0.92946   1.000
    C158    C    0.55437   0.90271   0.92949   1.000
    C159    C    0.02942   0.84695   0.88239   1.000
    C160    C    0.52942   0.84695   0.88240   1.000
    C161    C    0.17236   0.14750   0.89010   1.000
    C162    C    0.67236   0.14749   0.89010   1.000
    C163    C    0.12417   0.19983   0.88586   1.000
    C164    C    0.62417   0.19983   0.88590   1.000
    C165    C    0.13987   0.25312   0.83471   1.000
    C166    C    0.63987   0.25312   0.83475   1.000
    C167    C    0.20360   0.25313   0.78853   1.000
    C168    C    0.70360   0.25313   0.78856   1.000
    C169    C    0.23278   0.15027   0.84041   1.000
    C170    C    0.73276   0.15026   0.84042   1.000
    C171    C    0.22758   0.30888   0.73386   1.000
    C172    C    0.72758   0.30888   0.73389   1.000
    C173    C    0.19457   0.37146   0.72679   1.000
    C174    C    0.69455   0.37145   0.72682   1.000
    C175    C    0.22259   0.42180   0.67510   1.000
    C176    C    0.72255   0.42179   0.67519   1.000
    C177    C    0.31206   0.35280   0.63632   1.000
    C178    C    0.81203   0.35279   0.63634   1.000
    C179    C    0.28771   0.30036   0.68652   1.000
    C180    C    0.78771   0.30036   0.68655   1.000
    C181    C    0.02208   0.88114   0.23759   1.000
    C182    C    0.52206   0.88116   0.23750   1.000
    C183    C    0.45506   0.88682   0.27737   1.000
    C184    C    0.95511   0.88685   0.27742   1.000
    C185    C    0.42914   0.83516   0.32848   1.000
    C186    C    0.92917   0.83517   0.32852   1.000
    C187    C    0.47102   0.77856   0.33880   1.000
    C188    C    0.97100   0.77853   0.33879   1.000
    C189    C    0.06043   0.82310   0.25200   1.000
    C190    C    0.56047   0.82317   0.25205   1.000
    C191    C    0.44596   0.71987   0.39010   1.000
    C192    C    0.87543   0.66910   0.49257   1.000
    C193    C    0.44551   0.59732   0.42946   1.000
    C194    C    0.94547   0.59732   0.42950   1.000
    C195    C    0.47050   0.65309   0.38241   1.000
    C196    C    0.97047   0.65306   0.38243   1.000
    C197    C    0.17231   0.64748   0.60991   1.000
    C198    C    0.67234   0.64751   0.60990   1.000
    C199    C    0.12412   0.69982   0.61420   1.000
    C200    C    0.62417   0.69986   0.61415   1.000
    C201    C    0.13988   0.75311   0.66536   1.000
    C202    C    0.63986   0.75313   0.66534   1.000
    C203    C    0.20365   0.75310   0.71150   1.000
    C204    C    0.70359   0.75312   0.71156   1.000
    C205    C    0.23275   0.65024   0.65962   1.000
    C206    C    0.73274   0.65026   0.65966   1.000
    C207    C    0.22764   0.80885   0.76623   1.000
    C208    C    0.72759   0.80888   0.76623   1.000
    C209    C    0.19461   0.87142   0.77327   1.000
    C210    C    0.69456   0.87145   0.77330   1.000
    C211    C    0.22260   0.92177   0.82490   1.000
    C212    C    0.72260   0.92180   0.82493   1.000
    C213    C    0.31208   0.85279   0.86381   1.000
    C214    C    0.81210   0.85281   0.86378   1.000
    C215    C    0.28777   0.80034   0.81359   1.000
    C216    C    0.78774   0.80036   0.81350   1.000
    C217    C    0.02201   0.38112   0.26250   1.000
    C218    C    0.52198   0.38114   0.26259   1.000
    C219    C    0.45495   0.38678   0.22282   1.000
    C220    C    0.95497   0.38678   0.22279   1.000
    C221    C    0.42903   0.33511   0.17169   1.000
    C222    C    0.92902   0.33512   0.17166   1.000
    C223    C    0.47094   0.27854   0.16135   1.000
    C224    C    0.97090   0.27853   0.16133   1.000
    C225    C    0.06040   0.32312   0.24811   1.000
    C226    C    0.56041   0.32316   0.24812   1.000
    C227    C    0.44591   0.21986   0.10993   1.000
    C228    C    0.94586   0.21984   0.10993   1.000
    C229    C    0.39730   0.22716   0.05278   1.000
    C230    C    0.89725   0.22712   0.05277   1.000
    C231    C    0.37546   0.16908   0.00000   1.000
    C232    C    0.87544   0.16904   0.00000   1.000
    C233    C    0.44550   0.09733   0.07062   1.000
    C234    C    0.94549   0.09730   0.07063   1.000
    C235    C    0.47047   0.15309   0.11770   1.000
    C236    C    0.97044   0.15307   0.11771   1.000
    C237    C    0.32751   0.85251   0.10994   1.000
    C238    C    0.82756   0.85254   0.10994   1.000
    C239    C    0.79629   0.74693   0.21155   1.000
    C240    C    0.26712   0.84976   0.15968   1.000
    C241    C    0.76716   0.84979   0.15966   1.000
    C242    C    0.27231   0.69115   0.26622   1.000
    C243    C    0.77229   0.69117   0.26621   1.000
    C244    C    0.30533   0.62858   0.27330   1.000
    C245    C    0.80533   0.62861   0.27326   1.000
    C246    C    0.27730   0.57823   0.32491   1.000
    C247    C    0.77734   0.57826   0.32489   1.000
    C248    C    0.18782   0.64724   0.36375   1.000
    C249    C    0.68785   0.64724   0.36375   1.000
    C250    C    0.21218   0.69968   0.31356   1.000
    C251    C    0.71216   0.69968   0.31355   1.000
    C252    C    0.47786   0.11886   0.76254   1.000
    C253    C    0.97783   0.11885   0.76253   1.000
    C254    C    0.04480   0.11316   0.72200   1.000
    C255    C    0.54485   0.11319   0.72275   1.000
    C256    C    0.07071   0.16484   0.67159   1.000
    C257    C    0.57075   0.16484   0.67163   1.000
    C258    C    0.02886   0.22146   0.66133   1.000
    C259    C    0.52887   0.22144   0.66132   1.000
    C260    C    0.43945   0.17685   0.74810   1.000
    C261    C    0.93945   0.17687   0.74813   1.000
    C262    C    0.05389   0.28014   0.60994   1.000
    C263    C    0.55390   0.28011   0.60992   1.000
    C264    C    0.10250   0.27282   0.55280   1.000
    C265    C    0.60251   0.27280   0.55278   1.000
    C266    C    0.12437   0.33089   0.50754   1.000
    C267    C    0.62434   0.33087   0.50750   1.000
    C268    C    0.05435   0.40267   0.57060   1.000
    C269    C    0.55432   0.40264   0.57060   1.000
    C270    C    0.02938   0.34693   0.61772   1.000
    C271    C    0.52936   0.34689   0.61768   1.000
    N272    N    0.25146   0.29892   0.29129   1.000
    N273    N    0.75149   0.29892   0.29124   1.000
    N274    N    0.21934   0.08683   0.13032   1.000
    N275    N    0.71930   0.08678   0.13031   1.000
    N276    N    0.46366   0.72705   0.80076   1.000
    N277    N    0.96364   0.72704   0.80074   1.000
    N278    N    0.10162   0.89529   0.98386   1.000
    N279    N    0.60156   0.89527   0.98390   1.000
    N280    N    0.24841   0.20113   0.79124   1.000
    N281    N    0.74839   0.20112   0.79126   1.000
    N282    N    0.28059   0.41324   0.63035   1.000
    N283    N    0.78055   0.41321   0.63036   1.000
    N284    N    0.03624   0.77292   0.30074   1.000
    N285    N    0.53629   0.77299   0.30080   1.000
    N286    N    0.39829   0.60477   0.48384   1.000
    N287    N    0.89824   0.60477   0.48386   1.000
    N288    N    0.24844   0.70109   0.70881   1.000
    N289    N    0.74838   0.70111   0.70885   1.000
    N290    N    0.28059   0.91321   0.86977   1.000
    N291    N    0.78062   0.91323   0.86976   1.000
    N292    N    0.03621   0.27296   0.19934   1.000
    N293    N    0.53622   0.27298   0.19936   1.000
    N294    N    0.39829   0.10476   0.01622   1.000
    N295    N    0.89829   0.10473   0.01622   1.000
    N296    N    0.25151   0.79891   0.20880   1.000
    N297    N    0.75151   0.79895   0.20883   1.000
    N298    N    0.21929   0.58680   0.36973   1.000
    N299    N    0.71934   0.58682   0.36973   1.000
    N300    N    0.46365   0.22704   0.69937   1.000
    N301    N    0.96363   0.22707   0.69940   1.000
    N302    N    0.10154   0.39522   0.51625   1.000
    N303    N    0.60151   0.39519   0.51621   1.000
loop_
    _geom_bond_atom_site_label_1
    _geom_bond_atom_site_label_2
    _geom_bond_distance
    _geom_bond_site_symmetry_2
    _ccdc_geom_bond_type
    C232   N295      1.37401      .   S
    C232   C230      1.48489      .   S
    C232   H79       0.97705  1_554   S
    C231   N294      1.37406      .   S
    C231   C229      1.48500      .   S
    C231   H78       0.97695  1_554   S
    N294   C233      1.34844      .   S
    N295   C234      1.34844      .   S
    H22    C155      1.08955  1_554   S
    H23    C156      1.08951  1_554   S
    H77    C230      1.08933      .   S
    H76    C229      1.08933      .   S
    C230   C228      1.40439      .   S
    C229   C227      1.40429      .   S
    C233   H80       1.08939      .   S
    C233   C235      1.38773      .   S
    C234   H81       1.08939      .   S
    C234   C236      1.38780      .   S
    H85    C123      1.09057      .   S
    H84    C122      1.08916      .   S
    H10    C137      1.08977      .   S
    H11    C138      1.08972      .   S
    C227   C235      1.40378      .   S
    C227   C223      1.48140      .   S
    C228   C236      1.40377      .   S
    C228   C224      1.48124      .   S
    C237   C122      1.40009      .   S
    C237   C240      1.40158      .   S
    C238   C123      1.40014      .   S
    C238   C241      1.40151      .   S
    C122   C124      1.39514      .   S
    C123   C125      1.39406      .   S
    C235   H83       1.08777      .   S
    C236   H82       1.08792  1_655   S
    N275   C138      1.35037      .   S
    N275   C136      1.34766      .   S
    N274   C137      1.35041      .   S
    N274   C135      1.34771      .   S
    C138   C140      1.38561      .   S
    C137   C139      1.38558      .   S
    H73    C222      1.08966      .   S
    H72    C221      1.08977      .   S
    H89    C241      1.09039      .   S
    H88    C240      1.09037      .   S
    C241   N297      1.33576      .   S
    C240   N296      1.33501      .   S
    C224   C222      1.40450      .   S
    C224   N292      1.35357  1_655   S
    C223   C221      1.40450      .   S
    C223   N293      1.35317      .   S
    C124   H86       1.08934      .   S
    C124   C126      1.40537      .   S
    C125   H87       1.08934      .   S
    C125   C239      1.40539      .   S
    H9     C136      1.08996      .   S
    H8     C135      1.08996      .   S
    C222   C220      1.39334      .   S
    C221   C219      1.39327      .   S
    C136   C134      1.39188      .   S
    C135   C133      1.39181      .   S
    C140   H13       1.08695      .   S
    C140   C132      1.40614      .   S
    C139   H12       1.08697      .   S
    C139   C131      1.40609      .   S
    N292   C225      1.33798      .   S
    N293   C226      1.33800      .   S
    N296   C126      1.35227      .   S
    N297   C239      1.35225      .   S
    C126   C242      1.48624      .   S
    C239   C243      1.48624      .   S
    C220   H71       1.09006      .   S
    C220   C217      1.39652  1_655   S
    C219   H70       1.09003      .   S
    C219   C218      1.39691      .   S
    H46    C189      1.08977      .   S
    H47    C190      1.08974      .   S
    C134   C132      1.40390      .   S
    C134   H7        1.08902      .   S
    C133   C131      1.40389      .   S
    C133   H6        1.08901      .   S
    C132   C128      1.48627      .   S
    C131   C127      1.48630      .   S
    C182   C190      1.40338      .   S
    C182   C183      1.39794      .   S
    C181   C189      1.40305      .   S
    C181   C184      1.39731  1_455   S
    H91    C245      1.08900      .   S
    H90    C244      1.08905      .   S
    C225   C217      1.40276      .   S
    C225   H74       1.08979      .   S
    C226   C218      1.40302      .   S
    C226   H75       1.08975      .   S
    C189   N284      1.33798      .   S
    C190   N285      1.33810      .   S
    C243   C245      1.40388      .   S
    C243   C251      1.40608      .   S
    C242   C244      1.40389      .   S
    C242   C250      1.40616      .   S
    H42    C183      1.09005      .   S
    H43    C184      1.09015      .   S
    C245   C247      1.39194      .   S
    C244   C246      1.39183      .   S
    C183   C185      1.39319      .   S
    C184   C186      1.39331      .   S
    C128   N273      1.35225      .   S
    C128   C121      1.40540      .   S
    C127   N272      1.35221      .   S
    C127   C120      1.40544      .   S
    N273   C130      1.33543      .   S
    N272   C129      1.33591      .   S
    N284   C188      1.35352  1_455   S
    N285   C187      1.35319      .   S
    H101   C251      1.08698      .   S
    H100   C250      1.08696      .   S
    C251   C249      1.38553      .   S
    C250   C248      1.38552      .   S
    C247   H97       1.08995      .   S
    C247   N299      1.34763      .   S
    C246   H96       1.08997      .   S
    C246   N298      1.34761      .   S
    C185   C187      1.40450      .   S
    C185   H44       1.08971      .   S
    C186   C188      1.40449      .   S
    C186   H45       1.08971      .   S
    H3     C121      1.08934      .   S
    H2     C120      1.08932      .   S
    C121   C119      1.39407      .   S
    C120   C118      1.39398      .   S
    C188   C92       1.48025      .   S
    C187   C191      1.48026      .   S
    H55    C195      1.08779      .   S
    H54    C196      1.08787  1_455   S
    C130   H5        1.09037      .   S
    C130   C117      1.40187      .   S
    C129   H4        1.09036      .   S
    C129   C116      1.40148      .   S
    C248   N298      1.35040      .   S
    C248   H98       1.08985      .   S
    C249   N299      1.35040      .   S
    C249   H99       1.08984      .   S
    C195   C191      1.40362      .   S
    C195   C193      1.38772      .   S
    C196   C92       1.40362      .   S
    C196   C194      1.38776      .   S
    C119   C117      1.40014      .   S
    C119   H1        1.09017      .   S
    C118   C116      1.40011      .   S
    C118   H0        1.09013      .   S
    C191   C93       1.40546      .   S
    C92    C94       1.40576      .   S
    H52    C193      1.08940      .   S
    H53    C194      1.08938      .   S
    C193   N286      1.34844      .   S
    C194   N287      1.34837      .   S
    C93    H48       1.08937      .   S
    C93    C95       1.38911      .   S
    C94    H49       1.08934      .   S
    C94    C192      1.38901      .   S
    H111   C267      1.08956      .   S
    H110   C266      1.08960      .   S
    N286   C95       1.34833      .   S
    N287   C192      1.34834      .   S
    C95    H50       1.08957      .   S
    C192   H51       1.08956      .   S
    C267   N303      1.34836      .   S
    C267   C265      1.38910      .   S
    C266   N302      1.34834      .   S
    C266   C264      1.38903      .   S
    N303   C269      1.34839      .   S
    N302   C268      1.34787      .   S
    H109   C265      1.08934      .   S
    H108   C264      1.08933      .   S
    C265   C263      1.40435      .   S
    C264   C262      1.40436      .   S
    C268   H112      1.08946      .   S
    C268   C270      1.38827      .   S
    C269   H113      1.08940      .   S
    C269   C271      1.38776      .   S
    H57    C200      1.09002      .   S
    H56    C199      1.09066      .   S
    H38    C177      1.08974      .   S
    H39    C178      1.08975      .   S
    C198   C200      1.40017      .   S
    C198   C206      1.40174      .   S
    C197   C199      1.40013      .   S
    C197   C205      1.40161      .   S
    C263   C271      1.40376      .   S
    C263   C259      1.48133      .   S
    C262   C270      1.40377      .   S
    C262   C258      1.48124      .   S
    C200   C202      1.39413      .   S
    C199   C201      1.39401      .   S
    C271   H114      1.08775      .   S
    C270   H115      1.08795  1_455   S
    N282   C177      1.35036      .   S
    N282   C175      1.34668      .   S
    N283   C178      1.35037      .   S
    N283   C176      1.34759      .   S
    C177   C179      1.38566      .   S
    C178   C180      1.38557      .   S
    H104   C256      1.08968      .   S
    H105   C257      1.08977      .   S
    H60    C205      1.09037      .   S
    H61    C206      1.09038      .   S
    C205   N288      1.33590      .   S
    C206   N289      1.33589      .   S
    C259   C257      1.40451      .   S
    C259   N300      1.35322      .   S
    C258   C256      1.40449      .   S
    C258   N301      1.35356  1_455   S
    C202   H59       1.08933      .   S
    C202   C204      1.40544      .   S
    C201   H58       1.08932      .   S
    C201   C203      1.40500      .   S
    H36    C175      1.08979      .   S
    H37    C176      1.08998      .   S
    C256   C254      1.38376      .   S
    C257   C255      1.39318      .   S
    C175   C173      1.39285      .   S
    C176   C174      1.39186      .   S
    C179   H40       1.08697      .   S
    C179   C171      1.40607      .   S
    C180   H41       1.08688      .   S
    C180   C172      1.40611      .   S
    N300   C260      1.33802      .   S
    N301   C261      1.33805      .   S
    N288   C203      1.35218      .   S
    N289   C204      1.35222      .   S
    C203   C207      1.48680      .   S
    C204   C208      1.48617      .   S
    C254   H102      1.09267      .   S
    C254   C253      1.40478  1_455   S
    C255   H103      1.09007      .   S
    C255   C252      1.39697      .   S
    H19    C150      1.08967      .   S
    H18    C149      1.08972      .   S
    C173   C171      1.40394      .   S
    C173   H34       1.08908      .   S
    C174   C172      1.40391      .   S
    C174   H35       1.08909      .   S
    C171   C167      1.48626      .   S
    C172   C168      1.48628      .   S
    C141   C149      1.40303      .   S
    C141   C144      1.39693      .   S
    C142   C150      1.40301      .   S
    C142   C143      1.39729  1_655   S
    H62    C209      1.08903      .   S
    H63    C210      1.08899      .   S
    C260   C252      1.40302      .   S
    C260   H106      1.08969      .   S
    C261   C253      1.40301      .   S
    C261   H107      1.08966      .   S
    C150   N277      1.33801      .   S
    C149   N276      1.33807      .   S
    C207   C209      1.40388      .   S
    C207   C215      1.40602      .   S
    C208   C210      1.40390      .   S
    C208   C216      1.40519      .   S
    H15    C144      1.09006      .   S
    H14    C143      1.09006      .   S
    C209   C211      1.39173      .   S
    C210   C212      1.39188      .   S
    C144   C146      1.39330      .   S
    C143   C145      1.39334      .   S
    C167   N280      1.35224      .   S
    C167   C165      1.40535      .   S
    C168   N281      1.35224      .   S
    C168   C166      1.40538      .   S
    N280   C169      1.33584      .   S
    N281   C170      1.33577      .   S
    N277   C147      1.35354  1_655   S
    N276   C148      1.35325      .   S
    H69    C216      1.08686      .   S
    H68    C215      1.08696      .   S
    C216   C214      1.38659      .   S
    C215   C213      1.38563      .   S
    C211   H64       1.08996      .   S
    C211   N290      1.34768      .   S
    C212   H65       1.08996      .   S
    C212   N291      1.34759      .   S
    C146   C148      1.40451      .   S
    C146   H17       1.08968      .   S
    C145   C147      1.40451      .   S
    C145   H16       1.08964      .   S
    H30    C165      1.08934      .   S
    H31    C166      1.08934      .   S
    C165   C163      1.39407      .   S
    C166   C164      1.39414      .   S
    C147   C151      1.48133      .   S
    C148   C152      1.48119      .   S
    H27    C159      1.08793  1_655   S
    H26    C160      1.08764      .   S
    C169   H32       1.09039      .   S
    C169   C161      1.40127      .   S
    C170   H33       1.09041      .   S
    C170   C162      1.40102      .   S
    C214   N291      1.35036      .   S
    C214   H67       1.08989      .   S
    C213   N290      1.35037      .   S
    C213   H66       1.08988      .   S
    C159   C151      1.40379      .   S
    C159   C157      1.38774      .   S
    C160   C152      1.40378      .   S
    C160   C158      1.38777      .   S
    C163   C161      1.40012      .   S
    C163   H28       1.09017      .   S
    C164   C162      1.40009      .   S
    C164   H29       1.09004      .   S
    C152   C154      1.40375      .   S
    C151   C153      1.40437      .   S
    H24    C157      1.08949      .   S
    H25    C158      1.08940      .   S
    C157   N278      1.34848      .   S
    C158   N279      1.34839      .   S
    C154   H21       1.08948      .   S
    C154   C156      1.38935      .   S
    C153   H20       1.08933      .   S
    C153   C155      1.38871      .   S
    N278   C155      1.34824      .   S
    N279   C156      1.34823      .   S
