# CIF file generated by openbabel 2.4.90, see http://openbabel.sf.net
data_I
_chemical_name_common ''
_cell_length_a 17.005
_cell_length_b 18.735
_cell_length_c 19.368
_cell_angle_alpha 90.005
_cell_angle_beta 90.013
_cell_angle_gamma 101.51
_space_group_name_H-M_alt 'P 1'
_space_group_name_Hall 'P 1'
loop_
    _symmetry_equiv_pos_as_xyz
    x,y,z
loop_
    _atom_site_label
    _atom_site_type_symbol
    _atom_site_fract_x
    _atom_site_fract_y
    _atom_site_fract_z
    _atom_site_occupancy
    N0      N    0.45295   0.74606   0.36660   1.000
    N1      N    0.78325   0.21423   0.25964   1.000
    N2      N    0.21662   0.28578   0.75963   1.000
    N3      N    0.04698   0.75398   0.86659   1.000
    N4      N    0.71661   0.28577   0.75965   1.000
    N5      N    0.28325   0.21427   0.25968   1.000
    N6      N    0.54692   0.25392   0.63349   1.000
    N7      N    0.95294   0.74605   0.36662   1.000
    N8      N    0.21664   0.78576   0.74044   1.000
    N9      N    0.45290   0.24605   0.13312   1.000
    N10     N    0.71663   0.78578   0.74044   1.000
    N11     N    0.95288   0.24603   0.13311   1.000
    N12     N    0.54697   0.75398   0.86661   1.000
    N13     N    0.28326   0.71425   0.24044   1.000
    N14     N    0.04691   0.25394   0.63347   1.000
    N15     N    0.78328   0.71427   0.24044   1.000
    Zr16    Zr   0.24994   0.50001   0.50005   1.000
    O17     O    0.24226   0.56355   0.41170   1.000
    O18     O    0.16846   0.42452   0.52827   1.000
    O19     O    0.33141   0.57549   0.47182   1.000
    O20     O    0.25762   0.43648   0.58839   1.000
    O21     O    0.27880   0.39872   0.41952   1.000
    O22     O    0.22107   0.60130   0.58059   1.000
    O23     O    0.37749   0.58667   0.64380   1.000
    O24     O    0.12239   0.41334   0.35620   1.000
    Zr25    Zr   0.74994   0.50001   0.50005   1.000
    O26     O    0.77880   0.39870   0.41951   1.000
    O27     O    0.87750   0.58666   0.64379   1.000
    O28     O    0.66846   0.42452   0.52827   1.000
    O29     O    0.74228   0.56356   0.41170   1.000
    O30     O    0.72108   0.60131   0.58058   1.000
    O31     O    0.75760   0.43647   0.58839   1.000
    O32     O    0.83140   0.57548   0.47182   1.000
    O33     O    0.62239   0.41335   0.35621   1.000
    Zr34    Zr   0.24995   1.00000   0.00004   1.000
    O35     O    0.37748   0.08664   0.85628   1.000
    O36     O    0.12242   0.91335   0.14381   1.000
    O37     O    0.27880   0.89870   0.08059   1.000
    O38     O    0.25762   0.93646   0.91170   1.000
    O39     O    0.33140   0.07547   0.02818   1.000
    O40     O    0.22109   0.10130   0.91948   1.000
    O41     O    0.24227   0.06355   0.08839   1.000
    O42     O    0.16849   0.92454   0.97181   1.000
    Zr43    Zr   0.74996   1.00000   0.99999   1.000
    O44     O    0.77882   0.89871   0.08056   1.000
    O45     O    0.87748   0.08664   0.85625   1.000
    O46     O    0.66848   0.92454   0.97180   1.000
    O47     O    0.74227   0.06354   0.08836   1.000
    O48     O    0.75763   0.93646   0.91168   1.000
    O49     O    0.83140   0.07546   0.02815   1.000
    O50     O    0.72109   0.10130   0.91946   1.000
    O51     O    0.62242   0.91335   0.14377   1.000
loop_
    _geom_bond_atom_site_label_1
    _geom_bond_atom_site_label_2
    _geom_bond_distance
    _geom_bond_site_symmetry_2
    _ccdc_geom_bond_type
    Zr16   O17       2.10347      .   S
    N13    O17       4.32171      .   S
    Zr16   O18       1.85395      .   S
    N14    O18       4.00041      .   S
    Zr16   O19       1.85381      .   S
    N0     O19       4.00058      .   S
    Zr16   O20       2.10319      .   S
    N2     O20       4.32124      .   S
    Zr16   O21       2.57803      .   S
    N5     O21       4.65134      .   S
    Zr16   O22       2.57819      .   S
    N8     O22       4.65141      .   S
    Zr16   O23       3.69913      .   S
    N12    O23       5.75669      .   S
    Zr16   O24       3.70064      .   S
    N11    O24       5.76105  1_655   S
    Zr25   O26       2.57835      .   S
    N1     O26       4.65177      .   S
    Zr25   O27       3.69907      .   S
    N3     O27       5.75671  1_455   S
    Zr25   O28       1.85406      .   S
    N6     O28       4.00081      .   S
    Zr25   O29       2.10349      .   S
    N15    O29       4.32184      .   S
    Zr25   O30       2.57837      .   S
    N10    O30       4.65173      .   S
    Zr25   O31       2.10339      .   S
    N4     O31       4.32155      .   S
    Zr25   O32       1.85354      .   S
    N7     O32       4.00040      .   S
    Zr25   O33       3.70032      .   S
    N9     O33       5.76083      .   S
    Zr34   O35       3.69980  1_564   S
    N6     O35       5.75741      .   S
    Zr34   O36       3.70010      .   S
    N7     O36       5.75803  1_655   S
    Zr34   O37       2.57837      .   S
    N13    O37       4.65182      .   S
    Zr34   O38       2.10311  1_554   S
    N8     O38       4.32099      .   S
    Zr34   O39       1.85282  1_565   S
    N9     O39       3.99684      .   S
    Zr34   O40       2.57868  1_564   S
    N2     O40       4.65216      .   S
    Zr34   O41       2.10359  1_565   S
    N5     O41       4.32157      .   S
    Zr34   O42       1.85313  1_554   S
    N3     O42       3.99942      .   S
    Zr43   O44       2.57853  1_556   S
    N15    O44       4.65192      .   S
    Zr43   O45       3.69956  1_565   S
    N14    O45       5.75747  1_455   S
    Zr43   O46       1.85319      .   S
    N12    O46       3.99908      .   S
    Zr43   O47       2.10362  1_566   S
    N1     O47       4.32130      .   S
    Zr43   O48       2.10273      .   S
    N10    O48       4.32048      .   S
    Zr43   O49       1.85276  1_566   S
    N11    O49       3.99670      .   S
    Zr43   O50       2.57838  1_565   S
    N4     O50       4.65157      .   S
    Zr43   O51       3.70021  1_556   S
    N0     O51       5.75821      .   S
