# CIF file generated by openbabel 2.4.90, see http://openbabel.sf.net
data_I
_chemical_name_common ''
_cell_length_a 17.005
_cell_length_b 18.735
_cell_length_c 19.368
_cell_angle_alpha 90.005
_cell_angle_beta 90.013
_cell_angle_gamma 101.51
_space_group_name_H-M_alt 'P 1'
_space_group_name_Hall 'P 1'
loop_
    _symmetry_equiv_pos_as_xyz
    x,y,z
loop_
    _atom_site_label
    _atom_site_type_symbol
    _atom_site_fract_x
    _atom_site_fract_y
    _atom_site_fract_z
    _atom_site_occupancy
    C0      C    0.15255   0.99309   0.05731   1.000
    C1      C    0.65251   0.99308   0.05730   1.000
    C2      C    0.34732   0.50697   0.55731   1.000
    C3      C    0.84729   0.50694   0.55731   1.000
    C4      C    0.34732   0.00694   0.94280   1.000
    C5      C    0.84736   0.00692   0.94280   1.000
    C6      C    0.15253   0.49305   0.44279   1.000
    C7      C    0.65256   0.49307   0.44279   1.000
    C8      C    0.42471   0.30203   0.42263   1.000
    C9      C    0.92465   0.30192   0.42265   1.000
    C10     C    0.39754   0.20631   0.33068   1.000
    C11     C    0.89759   0.20631   0.33059   1.000
    C12     C    0.22819   0.38951   0.34124   1.000
    C13     C    0.72823   0.38950   0.34119   1.000
    C14     C    0.35259   0.11803   0.26098   1.000
    C15     C    0.85259   0.11799   0.26093   1.000
    C16     C    0.30206   0.02932   0.16857   1.000
    C17     C    0.80202   0.02927   0.16854   1.000
    C18     C    0.14127   0.15252   0.09908   1.000
    C19     C    0.64119   0.15246   0.09910   1.000
    C20     C    0.18325   0.24632   0.19024   1.000
    C21     C    0.68324   0.24629   0.19021   1.000
    C22     C    0.07658   0.56925   0.76663   1.000
    C23     C    0.57658   0.56929   0.76657   1.000
    C24     C    0.12450   0.66265   0.85847   1.000
    C25     C    0.62452   0.66265   0.85844   1.000
    C26     C    0.38627   0.68268   0.72288   1.000
    C27     C    0.88632   0.68269   0.72281   1.000
    C28     C    0.12290   0.72228   0.95741   1.000
    C29     C    0.62292   0.72229   0.95741   1.000
    C30     C    0.16172   0.82681   0.03757   1.000
    C31     C    0.66165   0.82678   0.03763   1.000
    C32     C    0.03673   0.95508   0.92280   1.000
    C33     C    0.53669   0.95507   0.92288   1.000
    C34     C    0.49188   0.85552   0.83893   1.000
    C35     C    0.99186   0.85552   0.83891   1.000
    C36     C    0.07518   0.19802   0.92253   1.000
    C37     C    0.57517   0.19800   0.92255   1.000
    C38     C    0.10226   0.29368   0.83054   1.000
    C39     C    0.60228   0.29369   0.83059   1.000
    C40     C    0.27173   0.11057   0.84119   1.000
    C41     C    0.77170   0.11054   0.84119   1.000
    C42     C    0.14730   0.38205   0.76091   1.000
    C43     C    0.64727   0.38204   0.76094   1.000
    C44     C    0.19790   0.47077   0.66856   1.000
    C45     C    0.69784   0.47074   0.66857   1.000
    C46     C    0.35866   0.34752   0.59915   1.000
    C47     C    0.85862   0.34751   0.59916   1.000
    C48     C    0.31655   0.25368   0.69021   1.000
    C49     C    0.81657   0.25370   0.69020   1.000
    C50     C    0.42340   0.93077   0.26662   1.000
    C51     C    0.92350   0.93085   0.26670   1.000
    C52     C    0.37546   0.83741   0.35844   1.000
    C53     C    0.87551   0.83745   0.35850   1.000
    C54     C    0.11356   0.81721   0.22283   1.000
    C55     C    0.61365   0.81733   0.22293   1.000
    C56     C    0.37699   0.77776   0.45736   1.000
    C57     C    0.87703   0.77778   0.45738   1.000
    C58     C    0.33821   0.67327   0.53756   1.000
    C59     C    0.83814   0.67329   0.53755   1.000
    C60     C    0.46317   0.54496   0.42284   1.000
    C61     C    0.96314   0.54495   0.42291   1.000
    C62     C    0.00805   0.64447   0.33899   1.000
    C63     C    0.50805   0.64451   0.33895   1.000
    C64     C    0.07511   0.69802   0.57750   1.000
    C65     C    0.57518   0.69805   0.57748   1.000
    C66     C    0.10230   0.79368   0.66955   1.000
    C67     C    0.60226   0.79369   0.66951   1.000
    C68     C    0.27169   0.61053   0.65880   1.000
    C69     C    0.77167   0.61054   0.65889   1.000
    C70     C    0.14735   0.88199   0.73912   1.000
    C71     C    0.64728   0.88203   0.73918   1.000
    C72     C    0.19789   0.97073   0.83150   1.000
    C73     C    0.69790   0.97076   0.83155   1.000
    C74     C    0.35867   0.84753   0.90103   1.000
    C75     C    0.85872   0.84754   0.90097   1.000
    C76     C    0.31664   0.75369   0.80992   1.000
    C77     C    0.81660   0.75370   0.80987   1.000
    C78     C    0.42327   0.43071   0.23358   1.000
    C79     C    0.92332   0.43074   0.23355   1.000
    C80     C    0.37533   0.33735   0.14172   1.000
    C81     C    0.87534   0.33738   0.14169   1.000
    C82     C    0.11359   0.31728   0.27724   1.000
    C83     C    0.61359   0.31733   0.27726   1.000
    C84     C    0.37696   0.27775   0.04272   1.000
    C85     C    0.87689   0.27770   0.04270   1.000
    C86     C    0.33822   0.17326   0.96250   1.000
    C87     C    0.83820   0.17320   0.96248   1.000
    C88     C    0.46318   0.04496   0.07723   1.000
    C89     C    0.96317   0.04494   0.07725   1.000
    C90     C    0.00802   0.14452   0.16118   1.000
    C91     C    0.50803   0.14452   0.16117   1.000
    C92     C    0.42467   0.80197   0.07751   1.000
    C93     C    0.92472   0.80198   0.07750   1.000
    C94     C    0.39759   0.70632   0.16950   1.000
    C95     C    0.89763   0.70636   0.16956   1.000
    C96     C    0.22820   0.88948   0.15891   1.000
    C97     C    0.72825   0.88953   0.15888   1.000
    C98     C    0.35261   0.61799   0.23919   1.000
    C99     C    0.85259   0.61803   0.23913   1.000
    C100    C    0.30199   0.52926   0.33152   1.000
    C101    C    0.80205   0.52931   0.33149   1.000
    C102    C    0.14123   0.65252   0.40093   1.000
    C103    C    0.64126   0.65252   0.40094   1.000
    C104    C    0.18333   0.74635   0.30986   1.000
    C105    C    0.68329   0.74633   0.30985   1.000
    C106    C    0.07644   0.06918   0.73340   1.000
    C107    C    0.57649   0.06922   0.73350   1.000
    C108    C    0.12438   0.16259   0.64161   1.000
    C109    C    0.62443   0.16258   0.64166   1.000
    C110    C    0.38630   0.18271   0.77724   1.000
    C111    C    0.88633   0.18274   0.77731   1.000
    C112    C    0.12279   0.22221   0.54274   1.000
    C113    C    0.62284   0.22221   0.54273   1.000
    C114    C    0.16164   0.32670   0.46255   1.000
    C115    C    0.66158   0.32666   0.46249   1.000
    C116    C    0.03668   0.45504   0.57724   1.000
    C117    C    0.53664   0.45500   0.57721   1.000
    C118    C    0.49181   0.35547   0.66114   1.000
    C119    C    0.99181   0.35552   0.66118   1.000
    C120    C    0.33661   0.40864   0.44641   1.000
    C121    C    0.83658   0.40859   0.44641   1.000
    C122    C    0.32753   0.35255   0.39020   1.000
    C123    C    0.82752   0.35249   0.39019   1.000
    C124    C    0.37570   0.30020   0.38596   1.000
    C125    C    0.87568   0.30014   0.38595   1.000
    C126    C    0.35996   0.24689   0.33482   1.000
    C127    C    0.85999   0.24687   0.33476   1.000
    C128    C    0.29623   0.24690   0.28861   1.000
    C129    C    0.79627   0.24690   0.28854   1.000
    C130    C    0.26711   0.34979   0.34047   1.000
    C131    C    0.76714   0.34976   0.34040   1.000
    C132    C    0.27226   0.19115   0.23391   1.000
    C133    C    0.77227   0.19113   0.23386   1.000
    C134    C    0.30532   0.12861   0.22684   1.000
    C135    C    0.80531   0.12857   0.22680   1.000
    C136    C    0.27734   0.07827   0.17519   1.000
    C137    C    0.77731   0.07822   0.17516   1.000
    C138    C    0.18784   0.14725   0.13630   1.000
    C139    C    0.68779   0.14720   0.13629   1.000
    C140    C    0.21213   0.19967   0.18654   1.000
    C141    C    0.71212   0.19964   0.18651   1.000
    C142    C    0.44834   0.56649   0.67946   1.000
    C143    C    0.94834   0.56647   0.67945   1.000
    C144    C    0.47790   0.61889   0.73754   1.000
    C145    C    0.97789   0.61886   0.73754   1.000
    C146    C    0.04492   0.61321   0.77735   1.000
    C147    C    0.54491   0.61323   0.77733   1.000
    C148    C    0.07082   0.66489   0.82848   1.000
    C149    C    0.57082   0.66489   0.82847   1.000
    C150    C    0.02893   0.72147   0.83878   1.000
    C151    C    0.52893   0.72148   0.83879   1.000
    C152    C    0.43946   0.67686   0.75201   1.000
    C153    C    0.93948   0.67686   0.75197   1.000
    C154    C    0.05396   0.78017   0.89018   1.000
    C155    C    0.55397   0.78017   0.89018   1.000
    C156    C    0.10257   0.77288   0.94734   1.000
    C157    C    0.60258   0.77288   0.94730   1.000
    C158    C    0.12444   0.83097   0.99257   1.000
    C159    C    0.62440   0.83096   0.99261   1.000
    C160    C    0.05440   0.90272   0.92946   1.000
    C161    C    0.55437   0.90271   0.92949   1.000
    C162    C    0.02942   0.84695   0.88239   1.000
    C163    C    0.52942   0.84695   0.88240   1.000
    C164    C    0.16329   0.09139   0.94633   1.000
    C165    C    0.66329   0.09138   0.94630   1.000
    C166    C    0.17236   0.14750   0.89010   1.000
    C167    C    0.67236   0.14749   0.89010   1.000
    C168    C    0.12417   0.19983   0.88586   1.000
    C169    C    0.62417   0.19983   0.88590   1.000
    C170    C    0.13987   0.25312   0.83471   1.000
    C171    C    0.63987   0.25312   0.83475   1.000
    C172    C    0.20360   0.25313   0.78853   1.000
    C173    C    0.70360   0.25313   0.78856   1.000
    C174    C    0.23278   0.15027   0.84041   1.000
    C175    C    0.73276   0.15026   0.84042   1.000
    C176    C    0.22758   0.30888   0.73386   1.000
    C177    C    0.72758   0.30888   0.73389   1.000
    C178    C    0.19457   0.37146   0.72679   1.000
    C179    C    0.69455   0.37145   0.72682   1.000
    C180    C    0.22259   0.42180   0.67510   1.000
    C181    C    0.72255   0.42179   0.67519   1.000
    C182    C    0.31206   0.35280   0.63632   1.000
    C183    C    0.81203   0.35279   0.63634   1.000
    C184    C    0.28771   0.30036   0.68652   1.000
    C185    C    0.78771   0.30036   0.68655   1.000
    C186    C    0.05162   0.93354   0.17951   1.000
    C187    C    0.55160   0.93355   0.17951   1.000
    C188    C    0.02208   0.88114   0.23759   1.000
    C189    C    0.52206   0.88116   0.23750   1.000
    C190    C    0.45506   0.88682   0.27737   1.000
    C191    C    0.95511   0.88685   0.27742   1.000
    C192    C    0.42914   0.83516   0.32848   1.000
    C193    C    0.92917   0.83517   0.32852   1.000
    C194    C    0.47102   0.77856   0.33880   1.000
    C195    C    0.97100   0.77853   0.33879   1.000
    C196    C    0.06043   0.82310   0.25200   1.000
    C197    C    0.56047   0.82317   0.25205   1.000
    C198    C    0.44596   0.71987   0.39010   1.000
    C199    C    0.94594   0.71986   0.39010   1.000
    C200    C    0.39733   0.72717   0.44730   1.000
    C201    C    0.89733   0.72717   0.44732   1.000
    C202    C    0.37547   0.66909   0.49256   1.000
    C203    C    0.87543   0.66910   0.49257   1.000
    C204    C    0.44551   0.59732   0.42946   1.000
    C205    C    0.94547   0.59732   0.42950   1.000
    C206    C    0.47050   0.65309   0.38241   1.000
    C207    C    0.97047   0.65306   0.38243   1.000
    C208    C    0.16321   0.59139   0.55369   1.000
    C209    C    0.66327   0.59141   0.55370   1.000
    C210    C    0.17231   0.64748   0.60991   1.000
    C211    C    0.67234   0.64751   0.60990   1.000
    C212    C    0.12412   0.69982   0.61420   1.000
    C213    C    0.62417   0.69986   0.61415   1.000
    C214    C    0.13988   0.75311   0.66536   1.000
    C215    C    0.63986   0.75313   0.66534   1.000
    C216    C    0.20365   0.75310   0.71150   1.000
    C217    C    0.70359   0.75312   0.71156   1.000
    C218    C    0.23275   0.65024   0.65962   1.000
    C219    C    0.73274   0.65026   0.65966   1.000
    C220    C    0.22764   0.80885   0.76623   1.000
    C221    C    0.72759   0.80888   0.76623   1.000
    C222    C    0.19461   0.87142   0.77327   1.000
    C223    C    0.69456   0.87145   0.77330   1.000
    C224    C    0.22260   0.92177   0.82490   1.000
    C225    C    0.72260   0.92180   0.82493   1.000
    C226    C    0.31208   0.85279   0.86381   1.000
    C227    C    0.81210   0.85281   0.86378   1.000
    C228    C    0.28777   0.80034   0.81359   1.000
    C229    C    0.78774   0.80036   0.81350   1.000
    C230    C    0.05160   0.43351   0.32065   1.000
    C231    C    0.55158   0.43354   0.32066   1.000
    C232    C    0.02201   0.38112   0.26250   1.000
    C233    C    0.52198   0.38114   0.26259   1.000
    C234    C    0.45495   0.38678   0.22282   1.000
    C235    C    0.95497   0.38678   0.22279   1.000
    C236    C    0.42903   0.33511   0.17169   1.000
    C237    C    0.92902   0.33512   0.17166   1.000
    C238    C    0.47094   0.27854   0.16135   1.000
    C239    C    0.97090   0.27853   0.16133   1.000
    C240    C    0.06040   0.32312   0.24811   1.000
    C241    C    0.56041   0.32316   0.24812   1.000
    C242    C    0.44591   0.21986   0.10993   1.000
    C243    C    0.94586   0.21984   0.10993   1.000
    C244    C    0.39730   0.22716   0.05278   1.000
    C245    C    0.89725   0.22712   0.05277   1.000
    C246    C    0.37546   0.16908   0.00000   1.000
    C247    C    0.87544   0.16904   0.00000   1.000
    C248    C    0.44550   0.09733   0.07062   1.000
    C249    C    0.94549   0.09730   0.07063   1.000
    C250    C    0.47047   0.15309   0.11770   1.000
    C251    C    0.97044   0.15307   0.11771   1.000
    C252    C    0.33656   0.90861   0.05374   1.000
    C253    C    0.83663   0.90862   0.05372   1.000
    C254    C    0.32751   0.85251   0.10994   1.000
    C255    C    0.82756   0.85254   0.10994   1.000
    C256    C    0.37568   0.80016   0.11410   1.000
    C257    C    0.87573   0.80018   0.11420   1.000
    C258    C    0.36000   0.74688   0.16534   1.000
    C259    C    0.86003   0.74692   0.16537   1.000
    C260    C    0.29630   0.74690   0.21155   1.000
    C261    C    0.79629   0.74693   0.21155   1.000
    C262    C    0.26712   0.84976   0.15968   1.000
    C263    C    0.76716   0.84979   0.15966   1.000
    C264    C    0.27231   0.69115   0.26622   1.000
    C265    C    0.77229   0.69117   0.26621   1.000
    C266    C    0.30533   0.62858   0.27330   1.000
    C267    C    0.80533   0.62861   0.27326   1.000
    C268    C    0.27730   0.57823   0.32491   1.000
    C269    C    0.77734   0.57826   0.32489   1.000
    C270    C    0.18782   0.64724   0.36375   1.000
    C271    C    0.68785   0.64724   0.36375   1.000
    C272    C    0.21218   0.69968   0.31356   1.000
    C273    C    0.71216   0.69968   0.31355   1.000
    C274    C    0.44833   0.06644   0.82059   1.000
    C275    C    0.94832   0.06644   0.82059   1.000
    C276    C    0.47786   0.11886   0.76254   1.000
    C277    C    0.97783   0.11885   0.76253   1.000
    C278    C    0.04480   0.11316   0.72200   1.000
    C279    C    0.54485   0.11319   0.72275   1.000
    C280    C    0.07071   0.16484   0.67159   1.000
    C281    C    0.57075   0.16484   0.67163   1.000
    C282    C    0.02886   0.22146   0.66133   1.000
    C283    C    0.52887   0.22144   0.66132   1.000
    C284    C    0.43945   0.17685   0.74810   1.000
    C285    C    0.93945   0.17687   0.74813   1.000
    C286    C    0.05389   0.28014   0.60994   1.000
    C287    C    0.55390   0.28011   0.60992   1.000
    C288    C    0.10250   0.27282   0.55280   1.000
    C289    C    0.60251   0.27280   0.55278   1.000
    C290    C    0.12437   0.33089   0.50754   1.000
    C291    C    0.62434   0.33087   0.50750   1.000
    C292    C    0.05435   0.40267   0.57060   1.000
    C293    C    0.55432   0.40264   0.57060   1.000
    C294    C    0.02938   0.34693   0.61772   1.000
    C295    C    0.52936   0.34689   0.61768   1.000
    C296    C    0.25146   0.29892   0.29129   1.000
    C297    C    0.75149   0.29892   0.29124   1.000
    C298    C    0.21934   0.08683   0.13032   1.000
    C299    C    0.71930   0.08678   0.13031   1.000
    C300    C    0.46366   0.72705   0.80076   1.000
    C301    C    0.96364   0.72704   0.80074   1.000
    C302    C    0.10162   0.89529   0.98386   1.000
    C303    C    0.60156   0.89527   0.98390   1.000
    C304    C    0.24841   0.20113   0.79124   1.000
    C305    C    0.74839   0.20112   0.79126   1.000
    C306    C    0.28059   0.41324   0.63035   1.000
    C307    C    0.78055   0.41321   0.63036   1.000
    C308    C    0.03624   0.77292   0.30074   1.000
    C309    C    0.53629   0.77299   0.30080   1.000
    C310    C    0.39829   0.60477   0.48384   1.000
    C311    C    0.89824   0.60477   0.48386   1.000
    C312    C    0.24844   0.70109   0.70881   1.000
    C313    C    0.74838   0.70111   0.70885   1.000
    C314    C    0.28059   0.91321   0.86977   1.000
    C315    C    0.78062   0.91323   0.86976   1.000
    C316    C    0.03621   0.27296   0.19934   1.000
    C317    C    0.53622   0.27298   0.19936   1.000
    C318    C    0.39829   0.10476   0.01622   1.000
    C319    C    0.89829   0.10473   0.01622   1.000
    C320    C    0.25151   0.79891   0.20880   1.000
    C321    C    0.75151   0.79895   0.20883   1.000
    C322    C    0.21929   0.58680   0.36973   1.000
    C323    C    0.71934   0.58682   0.36973   1.000
    C324    C    0.46365   0.22704   0.69937   1.000
    C325    C    0.96363   0.22707   0.69940   1.000
    C326    C    0.10154   0.39522   0.51625   1.000
    C327    C    0.60151   0.39519   0.51621   1.000
    C328    C    0.28503   0.45007   0.44967   1.000
    C329    C    0.78499   0.45002   0.44965   1.000
    C330    C    0.39338   0.41261   0.48967   1.000
    C331    C    0.89335   0.41257   0.48960   1.000
    C332    C    0.38688   0.58097   0.64689   1.000
    C333    C    0.88688   0.58095   0.64688   1.000
    C334    C    0.48325   0.51541   0.66619   1.000
    C335    C    0.98325   0.51540   0.66617   1.000
    C336    C    0.21483   0.04992   0.94956   1.000
    C337    C    0.71485   0.04994   0.94900   1.000
    C338    C    0.10655   0.08745   0.98960   1.000
    C339    C    0.60654   0.08743   0.98961   1.000
    C340    C    0.11306   0.91908   0.14692   1.000
    C341    C    0.61302   0.91907   0.14691   1.000
    C342    C    0.01671   0.98463   0.16620   1.000
    C343    C    0.51670   0.98465   0.16628   1.000
    C344    C    0.21473   0.54991   0.55047   1.000
    C345    C    0.71483   0.54996   0.55046   1.000
    C346    C    0.10646   0.58745   0.51041   1.000
    C347    C    0.60654   0.58746   0.51041   1.000
    C348    C    0.11309   0.41905   0.35318   1.000
    C349    C    0.61306   0.41907   0.35320   1.000
    C350    C    0.01671   0.48460   0.33395   1.000
    C351    C    0.51670   0.48464   0.33394   1.000
    C352    C    0.28495   0.95001   0.05045   1.000
    C353    C    0.78503   0.95004   0.05044   1.000
    C354    C    0.39334   0.91259   0.01049   1.000
    C355    C    0.89339   0.91258   0.01048   1.000
    C356    C    0.38693   0.08093   0.85320   1.000
    C357    C    0.88691   0.08091   0.85320   1.000
    C358    C    0.48324   0.01534   0.83380   1.000
    C359    C    0.98323   0.01533   0.83378   1.000
    O360    O    0.88686   0.13688   0.00811   1.000
    O361    O    0.88634   0.19808   0.02638   1.000
    O362    O    0.85682   0.17112   0.98124   1.000
    O363    O    0.38688   0.13692   0.00811   1.000
    O364    O    0.38638   0.19812   0.02639   1.000
    O365    O    0.35684   0.17117   0.98125   1.000
    O366    O    0.86501   0.91060   0.03210   1.000
    O367    O    0.87038   0.95975   0.97664   1.000
    O368    O    0.36495   0.91060   0.03212   1.000
    O369    O    0.37033   0.95976   0.97665   1.000
    O370    O    0.42189   0.10104   0.04342   1.000
    O371    O    0.37281   0.05585   0.97951   1.000
    O372    O    0.92189   0.10102   0.04343   1.000
    O373    O    0.87282   0.05583   0.97951   1.000
    O374    O    0.14308   0.82889   0.01507   1.000
    O375    O    0.64302   0.82887   0.01512   1.000
    O376    O    0.88707   0.25241   0.04774   1.000
    O377    O    0.38713   0.25245   0.04775   1.000
    O378    O    0.81083   0.92933   0.05208   1.000
    O379    O    0.81620   0.97848   0.99662   1.000
    O380    O    0.31076   0.92931   0.05210   1.000
    O381    O    0.31614   0.97847   0.99663   1.000
    O382    O    0.92156   0.22348   0.08135   1.000
    O383    O    0.42160   0.22351   0.08136   1.000
    O384    O    0.83209   0.88058   0.08183   1.000
    O385    O    0.33204   0.88056   0.08184   1.000
    O386    O    0.68590   0.03993   0.09381   1.000
    O387    O    0.63276   0.95607   0.10211   1.000
    O388    O    0.68368   0.02151   0.00315   1.000
    O389    O    0.62704   0.94417   0.02060   1.000
    O390    O    0.62953   0.04025   0.02346   1.000
    O391    O    0.18595   0.03996   0.09382   1.000
    O392    O    0.13280   0.95608   0.10212   1.000
    O393    O    0.18369   0.02151   0.00344   1.000
    O394    O    0.12708   0.94419   0.02059   1.000
    O395    O    0.12955   0.04027   0.02346   1.000
    O396    O    0.45434   0.07114   0.07393   1.000
    O397    O    0.45799   0.12521   0.09416   1.000
    O398    O    0.95433   0.07112   0.07394   1.000
    O399    O    0.95796   0.12519   0.09417   1.000
    O400    O    0.90022   0.80108   0.09585   1.000
    O401    O    0.40018   0.80106   0.09581   1.000
    O402    O    0.16456   0.14988   0.11769   1.000
    O403    O    0.66449   0.14983   0.11770   1.000
    O404    O    0.45819   0.18648   0.11381   1.000
    O405    O    0.45843   0.24920   0.13564   1.000
    O406    O    0.95815   0.18646   0.11382   1.000
    O407    O    0.95838   0.24918   0.13563   1.000
    O408    O    0.35160   0.82633   0.11202   1.000
    O409    O    0.29732   0.85113   0.13481   1.000
    O410    O    0.85165   0.82636   0.11207   1.000
    O411    O    0.79736   0.85117   0.13480   1.000
    O412    O    0.36784   0.77352   0.13972   1.000
    O413    O    0.86788   0.77355   0.13979   1.000
    O414    O    0.48925   0.14880   0.13944   1.000
    O415    O    0.98923   0.14880   0.13945   1.000
    O416    O    0.70354   0.11699   0.13330   1.000
    O417    O    0.74830   0.08250   0.15274   1.000
    O418    O    0.20359   0.11704   0.13331   1.000
    O419    O    0.24834   0.08255   0.15276   1.000
    O420    O    0.69996   0.17342   0.16140   1.000
    O421    O    0.19999   0.17346   0.16142   1.000
    O422    O    0.90218   0.33625   0.15668   1.000
    O423    O    0.40218   0.33623   0.15671   1.000
    O424    O    0.58231   0.92631   0.16321   1.000
    O425    O    0.08234   0.92631   0.16322   1.000
    O426    O    0.74771   0.86966   0.15927   1.000
    O427    O    0.24766   0.86962   0.15930   1.000
    O428    O    0.75934   0.82437   0.18425   1.000
    O429    O    0.25932   0.82434   0.18424   1.000
    O430    O    0.94996   0.30682   0.16650   1.000
    O431    O    0.00355   0.27574   0.18034   1.000
    O432    O    0.44999   0.30683   0.16652   1.000
    O433    O    0.50358   0.27576   0.18036   1.000
    O434    O    0.37880   0.72660   0.16742   1.000
    O435    O    0.32815   0.74689   0.18845   1.000
    O436    O    0.87883   0.72664   0.16747   1.000
    O437    O    0.82816   0.74692   0.18846   1.000
    O438    O    0.03417   0.95909   0.17286   1.000
    O439    O    0.53415   0.95910   0.17290   1.000
    O440    O    0.78966   0.05375   0.17185   1.000
    O441    O    0.28970   0.05379   0.17188   1.000
    O442    O    0.94199   0.36095   0.19723   1.000
    O443    O    0.44199   0.36095   0.19726   1.000
    O444    O    0.79131   0.10340   0.20098   1.000
    O445    O    0.29133   0.10344   0.20102   1.000
    O446    O    0.03685   0.90734   0.20855   1.000
    O447    O    0.53683   0.90736   0.20851   1.000
    O448    O    0.69768   0.22296   0.18836   1.000
    O449    O    0.74220   0.19539   0.21019   1.000
    O450    O    0.19769   0.22299   0.18839   1.000
    O451    O    0.24220   0.19541   0.21023   1.000
    O452    O    0.04830   0.29804   0.22373   1.000
    O453    O    0.54832   0.29807   0.22374   1.000
    O454    O    0.27390   0.77291   0.21018   1.000
    O455    O    0.77390   0.77294   0.21019   1.000
    O456    O    0.28430   0.71902   0.23889   1.000
    O457    O    0.78429   0.71905   0.23888   1.000
    O458    O    0.93914   0.40876   0.22817   1.000
    O459    O    0.98849   0.38395   0.24265   1.000
    O460    O    0.43911   0.40875   0.22820   1.000
    O461    O    0.48847   0.38396   0.24270   1.000
    O462    O    0.08700   0.82016   0.23742   1.000
    O463    O    0.58706   0.82025   0.23749   1.000
    O464    O    0.78879   0.15985   0.23033   1.000
    O465    O    0.82895   0.12328   0.24386   1.000
    O466    O    0.28879   0.15988   0.23038   1.000
    O467    O    0.32895   0.12332   0.24391   1.000
    O468    O    0.78427   0.21901   0.26120   1.000
    O469    O    0.28424   0.21903   0.26126   1.000
    O470    O    0.54127   0.85216   0.24478   1.000
    O471    O    0.48856   0.88399   0.25744   1.000
    O472    O    0.04126   0.85212   0.24480   1.000
    O473    O    0.98860   0.88399   0.25751   1.000
    O474    O    0.82896   0.62332   0.25620   1.000
    O475    O    0.32897   0.62329   0.25625   1.000
    O476    O    0.04120   0.35212   0.25531   1.000
    O477    O    0.08700   0.32020   0.26268   1.000
    O478    O    0.54119   0.35215   0.25535   1.000
    O479    O    0.58700   0.32025   0.26269   1.000
    O480    O    0.04834   0.79801   0.27637   1.000
    O481    O    0.54838   0.79808   0.27643   1.000
    O482    O    0.03680   0.40732   0.29158   1.000
    O483    O    0.53678   0.40734   0.29163   1.000
    O484    O    0.78881   0.65989   0.26974   1.000
    O485    O    0.74223   0.69542   0.28988   1.000
    O486    O    0.28882   0.65986   0.26976   1.000
    O487    O    0.24225   0.69541   0.28989   1.000
    O488    O    0.43923   0.90880   0.27200   1.000
    O489    O    0.93931   0.90885   0.27206   1.000
    O490    O    0.79133   0.60343   0.29908   1.000
    O491    O    0.29132   0.60341   0.29911   1.000
    O492    O    0.44210   0.86099   0.30292   1.000
    O493    O    0.94214   0.86101   0.30297   1.000
    O494    O    0.77388   0.27291   0.28989   1.000
    O495    O    0.82813   0.24688   0.31165   1.000
    O496    O    0.27385   0.27291   0.28995   1.000
    O497    O    0.32810   0.24690   0.31172   1.000
    O498    O    0.75932   0.32434   0.31582   1.000
    O499    O    0.25929   0.32435   0.31588   1.000
    O500    O    0.00362   0.77573   0.31977   1.000
    O501    O    0.50365   0.77578   0.31980   1.000
    O502    O    0.69773   0.72300   0.31170   1.000
    O503    O    0.19776   0.72301   0.31171   1.000
    O504    O    0.70001   0.67346   0.33865   1.000
    O505    O    0.20000   0.67346   0.33865   1.000
    O506    O    0.03415   0.45906   0.32730   1.000
    O507    O    0.08234   0.42628   0.33692   1.000
    O508    O    0.53414   0.45909   0.32730   1.000
    O509    O    0.58232   0.42631   0.33693   1.000
    O510    O    0.78970   0.55378   0.32819   1.000
    O511    O    0.74834   0.58254   0.34731   1.000
    O512    O    0.28964   0.55375   0.32822   1.000
    O513    O    0.24829   0.58251   0.34732   1.000
    O514    O    0.45008   0.80686   0.33364   1.000
    O515    O    0.40230   0.83628   0.34346   1.000
    O516    O    0.95009   0.80685   0.33365   1.000
    O517    O    0.90234   0.83631   0.34351   1.000
    O518    O    0.87879   0.22659   0.33268   1.000
    O519    O    0.37875   0.22660   0.33275   1.000
    O520    O    0.86784   0.27351   0.36035   1.000
    O521    O    0.36783   0.27355   0.36039   1.000
    O522    O    0.95847   0.74919   0.36445   1.000
    O523    O    0.45849   0.74922   0.36445   1.000
    O524    O    0.48928   0.64880   0.36068   1.000
    O525    O    0.98926   0.64877   0.36071   1.000
    O526    O    0.74769   0.36963   0.34079   1.000
    O527    O    0.79733   0.35113   0.36530   1.000
    O528    O    0.24765   0.36965   0.34086   1.000
    O529    O    0.29732   0.35117   0.36534   1.000
    O530    O    0.13281   0.45605   0.39799   1.000
    O531    O    0.63281   0.45607   0.39800   1.000
    O532    O    0.20356   0.61702   0.36674   1.000
    O533    O    0.16453   0.64988   0.38234   1.000
    O534    O    0.70359   0.61703   0.36674   1.000
    O535    O    0.66455   0.64988   0.38235   1.000
    O536    O    0.68595   0.53994   0.40626   1.000
    O537    O    0.18591   0.53993   0.40626   1.000
    O538    O    0.45823   0.68648   0.38626   1.000
    O539    O    0.45800   0.62521   0.40594   1.000
    O540    O    0.95821   0.68646   0.38627   1.000
    O541    O    0.95797   0.62519   0.40597   1.000
    O542    O    0.85160   0.32631   0.38807   1.000
    O543    O    0.90017   0.30103   0.40430   1.000
    O544    O    0.35162   0.32637   0.38808   1.000
    O545    O    0.40021   0.30112   0.40430   1.000
    O546    O    0.42165   0.72352   0.41870   1.000
    O547    O    0.92163   0.72351   0.41871   1.000
    O548    O    0.83205   0.38054   0.41830   1.000
    O549    O    0.33207   0.38059   0.41830   1.000
    O550    O    0.45434   0.57114   0.42615   1.000
    O551    O    0.95430   0.57113   0.42620   1.000
    O552    O    0.42190   0.60104   0.45665   1.000
    O553    O    0.92186   0.60104   0.45668   1.000
    O554    O    0.12950   0.54025   0.47660   1.000
    O555    O    0.12704   0.44413   0.47952   1.000
    O556    O    0.18363   0.52148   0.49663   1.000
    O557    O    0.62955   0.54026   0.47660   1.000
    O558    O    0.62703   0.44413   0.47950   1.000
    O559    O    0.68369   0.52151   0.49663   1.000
    O560    O    0.81079   0.42930   0.44803   1.000
    O561    O    0.86496   0.41058   0.46801   1.000
    O562    O    0.31082   0.42936   0.44804   1.000
    O563    O    0.36500   0.41063   0.46804   1.000
    O564    O    0.38716   0.75246   0.45233   1.000
    O565    O    0.38640   0.69813   0.46993   1.000
    O566    O    0.88718   0.75248   0.45235   1.000
    O567    O    0.88638   0.69813   0.46995   1.000
    O568    O    0.81614   0.47848   0.50348   1.000
    O569    O    0.31618   0.47852   0.50349   1.000
    O570    O    0.64296   0.32877   0.48500   1.000
    O571    O    0.14300   0.32879   0.48505   1.000
    O572    O    0.38688   0.63693   0.48820   1.000
    O573    O    0.37281   0.55587   0.52058   1.000
    O574    O    0.88683   0.63693   0.48822   1.000
    O575    O    0.87277   0.55586   0.52059   1.000
    O576    O    0.87032   0.45976   0.52346   1.000
    O577    O    0.37035   0.45979   0.52349   1.000
    O578    O    0.35684   0.67118   0.51506   1.000
    O579    O    0.85678   0.67119   0.51506   1.000
    O580    O    0.61293   0.36303   0.51185   1.000
    O581    O    0.61343   0.30183   0.53014   1.000
    O582    O    0.11295   0.36305   0.51190   1.000
    O583    O    0.11343   0.30186   0.53017   1.000
    O584    O    0.13483   0.58942   0.53205   1.000
    O585    O    0.63490   0.58943   0.53206   1.000
    O586    O    0.57791   0.39891   0.54341   1.000
    O587    O    0.07794   0.39894   0.54343   1.000
    O588    O    0.61267   0.24750   0.54776   1.000
    O589    O    0.11264   0.24751   0.54777   1.000
    O590    O    0.68905   0.57068   0.55208   1.000
    O591    O    0.18897   0.57065   0.55208   1.000
    O592    O    0.57821   0.27646   0.58135   1.000
    O593    O    0.07820   0.27648   0.58137   1.000
    O594    O    0.16776   0.61944   0.58180   1.000
    O595    O    0.66780   0.61946   0.58180   1.000
    O596    O    0.81392   0.46008   0.59384   1.000
    O597    O    0.86708   0.54395   0.60210   1.000
    O598    O    0.31396   0.46010   0.59383   1.000
    O599    O    0.36710   0.54397   0.60210   1.000
    O600    O    0.04551   0.42886   0.57392   1.000
    O601    O    0.04186   0.37480   0.59416   1.000
    O602    O    0.54548   0.42882   0.57391   1.000
    O603    O    0.54184   0.37477   0.59414   1.000
    O604    O    0.59967   0.69896   0.59582   1.000
    O605    O    0.09962   0.69892   0.59585   1.000
    O606    O    0.33536   0.35016   0.61774   1.000
    O607    O    0.83533   0.35015   0.61775   1.000
    O608    O    0.64826   0.67369   0.61203   1.000
    O609    O    0.70254   0.64889   0.63478   1.000
    O610    O    0.14821   0.67365   0.61206   1.000
    O611    O    0.20253   0.64886   0.63477   1.000
    O612    O    0.54163   0.31350   0.61380   1.000
    O613    O    0.54139   0.25077   0.63562   1.000
    O614    O    0.04164   0.31353   0.61383   1.000
    O615    O    0.04138   0.25080   0.63564   1.000
    O616    O    0.63202   0.72650   0.63975   1.000
    O617    O    0.13200   0.72647   0.63978   1.000
    O618    O    0.51059   0.35118   0.63941   1.000
    O619    O    0.01059   0.35122   0.63945   1.000
    O620    O    0.29633   0.38302   0.63334   1.000
    O621    O    0.25159   0.41752   0.65272   1.000
    O622    O    0.79629   0.38300   0.63335   1.000
    O623    O    0.75155   0.41750   0.65278   1.000
    O624    O    0.29988   0.32658   0.66142   1.000
    O625    O    0.79987   0.32658   0.66145   1.000
    O626    O    0.09755   0.16371   0.65660   1.000
    O627    O    0.59759   0.16371   0.65665   1.000
    O628    O    0.91761   0.57371   0.66317   1.000
    O629    O    0.41761   0.57373   0.66318   1.000
    O630    O    0.25222   0.63039   0.65921   1.000
    O631    O    0.75221   0.63040   0.65928   1.000
    O632    O    0.24059   0.67567   0.68422   1.000
    O633    O    0.74056   0.67569   0.68426   1.000
    O634    O    0.54981   0.19314   0.66648   1.000
    O635    O    0.49626   0.22424   0.68035   1.000
    O636    O    0.04979   0.19315   0.66646   1.000
    O637    O    0.99624   0.22426   0.68037   1.000
    O638    O    0.62106   0.77341   0.66743   1.000
    O639    O    0.67172   0.75312   0.68845   1.000
    O640    O    0.12109   0.77340   0.66746   1.000
    O641    O    0.17177   0.75311   0.68843   1.000
    O642    O    0.96579   0.54094   0.67281   1.000
    O643    O    0.46580   0.54095   0.67283   1.000
    O644    O    0.21024   0.44629   0.67183   1.000
    O645    O    0.71019   0.44626   0.67188   1.000
    O646    O    0.05776   0.13900   0.69680   1.000
    O647    O    0.55780   0.13901   0.69719   1.000
    O648    O    0.20858   0.39663   0.70095   1.000
    O649    O    0.70855   0.39662   0.70101   1.000
    O650    O    0.96311   0.59267   0.70850   1.000
    O651    O    0.46312   0.59269   0.70850   1.000
    O652    O    0.30213   0.27702   0.68837   1.000
    O653    O    0.25764   0.30462   0.71019   1.000
    O654    O    0.80214   0.27703   0.68838   1.000
    O655    O    0.75764   0.30462   0.71022   1.000
    O656    O    0.45155   0.20195   0.72374   1.000
    O657    O    0.95154   0.20197   0.72377   1.000
    O658    O    0.22604   0.72710   0.71016   1.000
    O659    O    0.72598   0.72711   0.71020   1.000
    O660    O    0.21565   0.78098   0.73886   1.000
    O661    O    0.71559   0.78100   0.73889   1.000
    O662    O    0.06062   0.09117   0.72770   1.000
    O663    O    0.01132   0.11601   0.74227   1.000
    O664    O    0.56067   0.09120   0.72813   1.000
    O665    O    0.51135   0.11602   0.74265   1.000
    O666    O    0.91290   0.67977   0.73739   1.000
    O667    O    0.41287   0.67977   0.73745   1.000
    O668    O    0.21107   0.34017   0.73033   1.000
    O669    O    0.17093   0.37676   0.74385   1.000
    O670    O    0.71106   0.34016   0.73036   1.000
    O671    O    0.67091   0.37674   0.74388   1.000
    O672    O    0.21559   0.28101   0.76120   1.000
    O673    O    0.71559   0.28100   0.76123   1.000
    O674    O    0.45868   0.64787   0.74478   1.000
    O675    O    0.51141   0.61606   0.75744   1.000
    O676    O    0.95869   0.64786   0.74476   1.000
    O677    O    0.01141   0.61604   0.75745   1.000
    O678    O    0.17098   0.87670   0.75620   1.000
    O679    O    0.67092   0.87674   0.75624   1.000
    O680    O    0.45865   0.14785   0.75532   1.000
    O681    O    0.41287   0.17978   0.76267   1.000
    O682    O    0.95864   0.14786   0.75533   1.000
    O683    O    0.91289   0.17981   0.76272   1.000
    O684    O    0.95156   0.70195   0.77636   1.000
    O685    O    0.45156   0.70195   0.77639   1.000
    O686    O    0.96308   0.09264   0.79156   1.000
    O687    O    0.46309   0.09265   0.79157   1.000
    O688    O    0.21113   0.84013   0.76975   1.000
    O689    O    0.25771   0.80460   0.78991   1.000
    O690    O    0.71108   0.84016   0.76977   1.000
    O691    O    0.75767   0.80462   0.78987   1.000
    O692    O    0.56075   0.59126   0.77195   1.000
    O693    O    0.06075   0.59123   0.77199   1.000
    O694    O    0.20860   0.89659   0.79909   1.000
    O695    O    0.70858   0.89662   0.79912   1.000
    O696    O    0.55787   0.63906   0.80290   1.000
    O697    O    0.05787   0.63905   0.80292   1.000
    O698    O    0.22601   0.22713   0.78989   1.000
    O699    O    0.17174   0.25313   0.81162   1.000
    O700    O    0.72600   0.22712   0.78991   1.000
    O701    O    0.67174   0.25313   0.81166   1.000
    O702    O    0.24059   0.17570   0.81583   1.000
    O703    O    0.74058   0.17569   0.81584   1.000
    O704    O    0.99628   0.72425   0.81976   1.000
    O705    O    0.49630   0.72426   0.81978   1.000
    O706    O    0.80217   0.77703   0.81168   1.000
    O707    O    0.30221   0.77702   0.81176   1.000
    O708    O    0.79992   0.82659   0.83864   1.000
    O709    O    0.29993   0.82657   0.83870   1.000
    O710    O    0.46578   0.04089   0.82720   1.000
    O711    O    0.41763   0.07368   0.83690   1.000
    O712    O    0.96577   0.04088   0.82719   1.000
    O713    O    0.91762   0.07367   0.83690   1.000
    O714    O    0.21024   0.94625   0.82820   1.000
    O715    O    0.25159   0.91749   0.84734   1.000
    O716    O    0.71025   0.94628   0.82824   1.000
    O717    O    0.75161   0.91752   0.84735   1.000
    O718    O    0.54988   0.69318   0.83363   1.000
    O719    O    0.59767   0.66377   0.84346   1.000
    O720    O    0.04987   0.69318   0.83363   1.000
    O721    O    0.09766   0.66377   0.84348   1.000
    O722    O    0.12107   0.27340   0.83263   1.000
    O723    O    0.62108   0.27341   0.83267   1.000
    O724    O    0.13202   0.22648   0.86028   1.000
    O725    O    0.63202   0.22648   0.86033   1.000
    O726    O    0.04145   0.75082   0.86448   1.000
    O727    O    0.54145   0.75083   0.86449   1.000
    O728    O    0.01064   0.85123   0.86065   1.000
    O729    O    0.51065   0.85123   0.86067   1.000
    O730    O    0.25225   0.13042   0.84080   1.000
    O731    O    0.20257   0.14889   0.86526   1.000
    O732    O    0.75223   0.13040   0.84081   1.000
    O733    O    0.70256   0.14887   0.86526   1.000
    O734    O    0.86714   0.04392   0.89800   1.000
    O735    O    0.36713   0.04393   0.89800   1.000
    O736    O    0.79636   0.88302   0.86677   1.000
    O737    O    0.83541   0.85017   0.88238   1.000
    O738    O    0.29634   0.88300   0.86679   1.000
    O739    O    0.33538   0.85016   0.88242   1.000
    O740    O    0.81399   0.96008   0.90628   1.000
    O741    O    0.31396   0.96007   0.90629   1.000
    O742    O    0.04169   0.81356   0.88629   1.000
    O743    O    0.04191   0.87483   0.90592   1.000
    O744    O    0.54170   0.81356   0.88629   1.000
    O745    O    0.54190   0.87483   0.90595   1.000
    O746    O    0.14827   0.17366   0.88798   1.000
    O747    O    0.09968   0.19893   0.90420   1.000
    O748    O    0.64826   0.17366   0.88800   1.000
    O749    O    0.59967   0.19891   0.90423   1.000
    O750    O    0.66783   0.11944   0.91820   1.000
    O751    O    0.16782   0.11944   0.91822   1.000
    O752    O    0.57828   0.77653   0.91874   1.000
    O753    O    0.07827   0.77652   0.91876   1.000
    O754    O    0.04556   0.92890   0.92613   1.000
    O755    O    0.54553   0.92889   0.92619   1.000
    O756    O    0.07801   0.89900   0.95666   1.000
    O757    O    0.57797   0.89899   0.95670   1.000
    O758    O    0.68907   0.07066   0.94765   1.000
    O759    O    0.63492   0.08941   0.96796   1.000
    O760    O    0.18906   0.07066   0.94795   1.000
    O761    O    0.13492   0.08942   0.96797   1.000
    O762    O    0.61275   0.74758   0.95235   1.000
    O763    O    0.61349   0.80192   0.96996   1.000
    O764    O    0.11273   0.74758   0.95238   1.000
    O765    O    0.11351   0.80192   0.96996   1.000
    O766    O    0.11303   0.86313   0.98821   1.000
    O767    O    0.61298   0.86311   0.98826   1.000
    O768    O    0.21878   0.47156   0.44623   1.000
    O769    O    0.71878   0.47154   0.44622   1.000
    O770    O    0.28108   0.02843   0.94618   1.000
    O771    O    0.78111   0.02843   0.94590   1.000
    O772    O    0.28103   0.52844   0.55389   1.000
    O773    O    0.78106   0.52845   0.55388   1.000
    O774    O    0.21875   0.97155   0.05388   1.000
    O775    O    0.71877   0.97156   0.05387   1.000
loop_
    _geom_bond_atom_site_label_1
    _geom_bond_atom_site_label_2
    _geom_bond_distance
    _geom_bond_site_symmetry_2
    _ccdc_geom_bond_type
    C247   O360      0.68701      .   S
    C319   O360      0.68701      .   S
    C247   O361      0.74244      .   S
    C245   O361      0.74244      .   S
    C247   O362      0.48852  1_554   S
    C87    O362      0.48852      .   S
    C246   O363      0.68703      .   S
    C318   O363      0.68703      .   S
    C246   O364      0.74250      .   S
    C244   O364      0.74250      .   S
    C246   O365      0.48847  1_554   S
    C86    O365      0.48847      .   S
    C355   O366      0.63451      .   S
    C253   O366      0.63451      .   S
    C355   O367      1.22548  1_554   S
    C5     O367      1.22548  1_545   S
    C354   O368      0.63461      .   S
    C252   O368      0.63461      .   S
    C354   O369      1.22546  1_554   S
    C4     O369      1.22546  1_545   S
    C318   O370      0.67422      .   S
    C248   O370      0.67422      .   S
    C318   O371      1.17232  1_554   S
    C4     O371      1.17232      .   S
    C319   O372      0.67422      .   S
    C249   O372      0.67422      .   S
    C319   O373      1.17211  1_554   S
    C5     O373      1.17211      .   S
    C30    O374      0.54477      .   S
    C158   O374      0.54477  1_556   S
    C31    O375      0.54476      .   S
    C159   O375      0.54476  1_556   S
    C85    O376      0.54467      .   S
    C245   O376      0.54467      .   S
    C84    O377      0.54466      .   S
    C244   O377      0.54466      .   S
    C353   O378      0.64178      .   S
    C253   O378      0.64178      .   S
    C353   O379      1.24058  1_554   S
    C5     O379      1.24058  1_545   S
    C352   O380      0.64179      .   S
    C252   O380      0.64179      .   S
    C352   O381      1.24093  1_554   S
    C4     O381      1.24093  1_545   S
    C245   O382      0.70219      .   S
    C243   O382      0.70219      .   S
    C244   O383      0.70215      .   S
    C242   O383      0.70215      .   S
    C253   O384      0.74985      .   S
    C255   O384      0.74985      .   S
    C252   O385      0.74981      .   S
    C254   O385      0.74981      .   S
    C1     O386      1.18053  1_565   S
    C299   O386      1.18053      .   S
    C1     O387      1.11970      .   S
    C341   O387      1.11970      .   S
    C1     O388      1.24590  1_565   S
    C337   O388      1.24590  1_556   S
    C1     O389      1.17208      .   S
    C303   O389      1.17208  1_556   S
    C1     O390      1.22537  1_565   S
    C339   O390      1.22537  1_556   S
    C0     O391      1.18076  1_565   S
    C298   O391      1.18076      .   S
    C0     O392      1.11972      .   S
    C340   O392      1.11972      .   S
    C0     O393      1.24116  1_565   S
    C336   O393      1.24116  1_556   S
    C0     O394      1.17226      .   S
    C302   O394      1.17226  1_556   S
    C0     O395      1.22563  1_565   S
    C338   O395      1.22563  1_556   S
    C248   O396      0.54469      .   S
    C88    O396      0.54469      .   S
    C248   O397      0.69387      .   S
    C250   O397      0.69387      .   S
    C249   O398      0.54470      .   S
    C89    O398      0.54470      .   S
    C249   O399      0.69390      .   S
    C251   O399      0.69390      .   S
    C93    O400      0.54528      .   S
    C257   O400      0.54528      .   S
    C92    O401      0.54458      .   S
    C256   O401      0.54458      .   S
    C18    O402      0.54489      .   S
    C138   O402      0.54489      .   S
    C19    O403      0.54486      .   S
    C139   O403      0.54486      .   S
    C242   O404      0.70189      .   S
    C250   O404      0.70189      .   S
    C242   O405      0.74070      .   S
    C238   O405      0.74070      .   S
    C243   O406      0.70188      .   S
    C251   O406      0.70188      .   S
    C243   O407      0.74062      .   S
    C239   O407      0.74062      .   S
    C254   O408      0.70005      .   S
    C256   O408      0.70005      .   S
    C254   O409      0.70079      .   S
    C262   O409      0.70079      .   S
    C255   O410      0.70007      .   S
    C257   O410      0.70007      .   S
    C255   O411      0.70076      .   S
    C263   O411      0.70076      .   S
    C256   O412      0.69757      .   S
    C258   O412      0.69757      .   S
    C257   O413      0.69703      .   S
    C259   O413      0.69703      .   S
    C250   O414      0.54389      .   S
    C91    O414      0.54389      .   S
    C251   O415      0.54396      .   S
    C90    O415      0.54396  1_455   S
    C299   O416      0.67519      .   S
    C139   O416      0.67519      .   S
    C299   O417      0.67383      .   S
    C137   O417      0.67383      .   S
    C298   O418      0.67521      .   S
    C138   O418      0.67521      .   S
    C298   O419      0.67385      .   S
    C136   O419      0.67385      .   S
    C139   O420      0.69281      .   S
    C141   O420      0.69281      .   S
    C138   O421      0.69279      .   S
    C140   O421      0.69279      .   S
    C81    O422      0.54483      .   S
    C237   O422      0.54483      .   S
    C80    O423      0.54489      .   S
    C236   O423      0.54489      .   S
    C341   O424      0.64740      .   S
    C187   O424      0.64740      .   S
    C340   O425      0.64741      .   S
    C186   O425      0.64741      .   S
    C97    O426      0.54519      .   S
    C263   O426      0.54519      .   S
    C96    O427      0.54519      .   S
    C262   O427      0.54519      .   S
    C263   O428      0.66788      .   S
    C321   O428      0.66788      .   S
    C262   O429      0.66751      .   S
    C320   O429      0.66751      .   S
    C239   O430      0.70225      .   S
    C237   O430      0.70225      .   S
    C239   O431      0.67678  1_655   S
    C316   O431      0.67678      .   S
    C238   O432      0.70225      .   S
    C236   O432      0.70225      .   S
    C238   O433      0.67659      .   S
    C317   O433      0.67659      .   S
    C258   O434      0.54467      .   S
    C94    O434      0.54467      .   S
    C258   O435      0.70268      .   S
    C260   O435      0.70268      .   S
    C259   O436      0.54467      .   S
    C95    O436      0.54467      .   S
    C259   O437      0.70270      .   S
    C261   O437      0.70270      .   S
    C342   O438      0.62485      .   S
    C186   O438      0.62485      .   S
    C343   O439      0.62472      .   S
    C187   O439      0.62472      .   S
    C17    O440      0.54498      .   S
    C137   O440      0.54498      .   S
    C16    O441      0.54498      .   S
    C136   O441      0.54498      .   S
    C237   O442      0.69667      .   S
    C235   O442      0.69667      .   S
    C236   O443      0.69663      .   S
    C234   O443      0.69663      .   S
    C137   O444      0.69594      .   S
    C135   O444      0.69594      .   S
    C136   O445      0.69590      .   S
    C134   O445      0.69590      .   S
    C186   O446      0.75584      .   S
    C188   O446      0.75584      .   S
    C187   O447      0.75516      .   S
    C189   O447      0.75516      .   S
    C141   O448      0.54348      .   S
    C21    O448      0.54348      .   S
    C141   O449      0.70307      .   S
    C133   O449      0.70307      .   S
    C140   O450      0.54349      .   S
    C20    O450      0.54349      .   S
    C140   O451      0.70304      .   S
    C132   O451      0.70304      .   S
    C316   O452      0.66899      .   S
    C240   O452      0.66899      .   S
    C317   O453      0.66900      .   S
    C241   O453      0.66900      .   S
    C320   O454      0.67613      .   S
    C260   O454      0.67613      .   S
    C321   O455      0.67612      .   S
    C261   O455      0.67612      .   S
    C260   O456      0.74312      .   S
    C264   O456      0.74312      .   S
    C261   O457      0.74312      .   S
    C265   O457      0.74312      .   S
    C235   O458      0.54503      .   S
    C79    O458      0.54503      .   S
    C235   O459      0.69826      .   S
    C232   O459      0.69826  1_455   S
    C234   O460      0.54502      .   S
    C78    O460      0.54502      .   S
    C234   O461      0.69845      .   S
    C233   O461      0.69845      .   S
    C54    O462      0.54488      .   S
    C196   O462      0.54488      .   S
    C55    O463      0.54487      .   S
    C197   O463      0.54487      .   S
    C135   O464      0.70195      .   S
    C133   O464      0.70195      .   S
    C135   O465      0.54451      .   S
    C15    O465      0.54451      .   S
    C134   O466      0.70194      .   S
    C132   O466      0.70194      .   S
    C134   O467      0.54451      .   S
    C14    O467      0.54451      .   S
    C133   O468      0.74313      .   S
    C129   O468      0.74313      .   S
    C132   O469      0.74315      .   S
    C128   O469      0.74315      .   S
    C189   O470      0.70169      .   S
    C197   O470      0.70169      .   S
    C189   O471      0.69897      .   S
    C190   O471      0.69897      .   S
    C188   O472      0.70152      .   S
    C196   O472      0.70152      .   S
    C188   O473      0.69866  1_455   S
    C191   O473      0.69866      .   S
    C99    O474      0.54450      .   S
    C267   O474      0.54450      .   S
    C98    O475      0.54453      .   S
    C266   O475      0.54453      .   S
    C240   O476      0.70138      .   S
    C232   O476      0.70138      .   S
    C240   O477      0.54490      .   S
    C82    O477      0.54490      .   S
    C241   O478      0.70151      .   S
    C233   O478      0.70151      .   S
    C241   O479      0.54487      .   S
    C83    O479      0.54487      .   S
    C196   O480      0.66899      .   S
    C308   O480      0.66899      .   S
    C197   O481      0.66905      .   S
    C309   O481      0.66905      .   S
    C232   O482      0.75625      .   S
    C230   O482      0.75625      .   S
    C233   O483      0.75574      .   S
    C231   O483      0.75574      .   S
    C265   O484      0.70194      .   S
    C267   O484      0.70194      .   S
    C265   O485      0.70304      .   S
    C273   O485      0.70304      .   S
    C264   O486      0.70195      .   S
    C266   O486      0.70195      .   S
    C264   O487      0.70308      .   S
    C272   O487      0.70308      .   S
    C50    O488      0.54503      .   S
    C190   O488      0.54503      .   S
    C51    O489      0.54508      .   S
    C191   O489      0.54508      .   S
    C267   O490      0.69597      .   S
    C269   O490      0.69597      .   S
    C266   O491      0.69592      .   S
    C268   O491      0.69592      .   S
    C190   O492      0.69659      .   S
    C192   O492      0.69659      .   S
    C191   O493      0.69665      .   S
    C193   O493      0.69665      .   S
    C129   O494      0.67613      .   S
    C297   O494      0.67613      .   S
    C129   O495      0.70270      .   S
    C127   O495      0.70270      .   S
    C128   O496      0.67611      .   S
    C296   O496      0.67611      .   S
    C128   O497      0.70272      .   S
    C126   O497      0.70272      .   S
    C297   O498      0.66771      .   S
    C131   O498      0.66771      .   S
    C296   O499      0.66796      .   S
    C130   O499      0.66796      .   S
    C308   O500      0.67676      .   S
    C195   O500      0.67676  1_655   S
    C309   O501      0.67660      .   S
    C194   O501      0.67660      .   S
    C105   O502      0.54349      .   S
    C273   O502      0.54349      .   S
    C104   O503      0.54348      .   S
    C272   O503      0.54348      .   S
    C273   O504      0.69277      .   S
    C271   O504      0.69277      .   S
    C272   O505      0.69276      .   S
    C270   O505      0.69276      .   S
    C230   O506      0.62472      .   S
    C350   O506      0.62472      .   S
    C230   O507      0.64739      .   S
    C348   O507      0.64739      .   S
    C231   O508      0.62471      .   S
    C351   O508      0.62471      .   S
    C231   O509      0.64741      .   S
    C349   O509      0.64741      .   S
    C269   O510      0.54498      .   S
    C101   O510      0.54498      .   S
    C269   O511      0.67381      .   S
    C323   O511      0.67381      .   S
    C268   O512      0.54498      .   S
    C100   O512      0.54498      .   S
    C268   O513      0.67380      .   S
    C322   O513      0.67380      .   S
    C192   O514      0.70225      .   S
    C194   O514      0.70225      .   S
    C192   O515      0.54485      .   S
    C52    O515      0.54485      .   S
    C193   O516      0.70225      .   S
    C195   O516      0.70225      .   S
    C193   O517      0.54485      .   S
    C53    O517      0.54485      .   S
    C11    O518      0.54467      .   S
    C127   O518      0.54467      .   S
    C10    O519      0.54466      .   S
    C126   O519      0.54466      .   S
    C127   O520      0.69703      .   S
    C125   O520      0.69703      .   S
    C126   O521      0.69699      .   S
    C124   O521      0.69699      .   S
    C195   O522      0.74012      .   S
    C199   O522      0.74012      .   S
    C194   O523      0.74013      .   S
    C198   O523      0.74013      .   S
    C63    O524      0.54389      .   S
    C206   O524      0.54389      .   S
    C62    O525      0.54394  1_455   S
    C207   O525      0.54394      .   S
    C131   O526      0.54519      .   S
    C13    O526      0.54519      .   S
    C131   O527      0.70094      .   S
    C123   O527      0.70094      .   S
    C130   O528      0.54518      .   S
    C12    O528      0.54518      .   S
    C130   O529      0.70074      .   S
    C122   O529      0.70074      .   S
    C348   O530      1.11939      .   S
    C6     O530      1.11939      .   S
    C349   O531      1.11928      .   S
    C7     O531      1.11928      .   S
    C270   O532      0.67520      .   S
    C322   O532      0.67520      .   S
    C270   O533      0.54492      .   S
    C102   O533      0.54492      .   S
    C271   O534      0.67520      .   S
    C323   O534      0.67520      .   S
    C271   O535      0.54492      .   S
    C103   O535      0.54492      .   S
    C323   O536      1.18132      .   S
    C7     O536      1.18132      .   S
    C322   O537      1.18120      .   S
    C6     O537      1.18120      .   S
    C206   O538      0.70181      .   S
    C198   O538      0.70181      .   S
    C206   O539      0.69386      .   S
    C204   O539      0.69386      .   S
    C207   O540      0.70181      .   S
    C199   O540      0.70181      .   S
    C207   O541      0.69388      .   S
    C205   O541      0.69388      .   S
    C125   O542      0.70007      .   S
    C123   O542      0.70007      .   S
    C125   O543      0.54508      .   S
    C9     O543      0.54508      .   S
    C124   O544      0.70006      .   S
    C122   O544      0.70006      .   S
    C124   O545      0.54506      .   S
    C8     O545      0.54506      .   S
    C198   O546      0.70273      .   S
    C200   O546      0.70273      .   S
    C199   O547      0.70288      .   S
    C201   O547      0.70288      .   S
    C123   O548      0.74984      .   S
    C121   O548      0.74984      .   S
    C122   O549      0.74974      .   S
    C120   O549      0.74974      .   S
    C60    O550      0.54470      .   S
    C204   O550      0.54470      .   S
    C61    O551      0.54469      .   S
    C205   O551      0.54469      .   S
    C204   O552      0.67422      .   S
    C310   O552      0.67422      .   S
    C205   O553      0.67419      .   S
    C311   O553      0.67419      .   S
    C6     O554      1.22573      .   S
    C346   O554      1.22573      .   S
    C6     O555      1.17290      .   S
    C326   O555      1.17290      .   S
    C6     O556      1.24013      .   S
    C344   O556      1.24013      .   S
    C7     O557      1.22551      .   S
    C347   O557      1.22551      .   S
    C7     O558      1.17304      .   S
    C327   O558      1.17304      .   S
    C7     O559      1.24042      .   S
    C345   O559      1.24042      .   S
    C121   O560      0.64179      .   S
    C329   O560      0.64179      .   S
    C121   O561      0.63404      .   S
    C331   O561      0.63404      .   S
    C120   O562      0.64178      .   S
    C328   O562      0.64178      .   S
    C120   O563      0.63455      .   S
    C330   O563      0.63455      .   S
    C200   O564      0.54469      .   S
    C56    O564      0.54469      .   S
    C200   O565      0.69456      .   S
    C202   O565      0.69456      .   S
    C201   O566      0.54467      .   S
    C57    O566      0.54467      .   S
    C201   O567      0.69451      .   S
    C203   O567      0.69451      .   S
    C329   O568      1.24048      .   S
    C3     O568      1.24048      .   S
    C328   O569      1.24022      .   S
    C2     O569      1.24022      .   S
    C115   O570      0.54478      .   S
    C291   O570      0.54478      .   S
    C114   O571      0.54480      .   S
    C290   O571      0.54480      .   S
    C310   O572      0.67417      .   S
    C202   O572      0.67417      .   S
    C310   O573      1.17265      .   S
    C2     O573      1.17265      .   S
    C311   O574      0.67417      .   S
    C203   O574      0.67417      .   S
    C311   O575      1.17269      .   S
    C3     O575      1.17269      .   S
    C331   O576      1.22595      .   S
    C3     O576      1.22595      .   S
    C330   O577      1.22550      .   S
    C2     O577      1.22550      .   S
    C202   O578      0.54479      .   S
    C58    O578      0.54479      .   S
    C203   O579      0.54478      .   S
    C59    O579      0.54478      .   S
    C291   O580      0.67418      .   S
    C327   O580      0.67418      .   S
    C291   O581      0.69455      .   S
    C289   O581      0.69455      .   S
    C290   O582      0.67417      .   S
    C326   O582      0.67417      .   S
    C290   O583      0.69451      .   S
    C288   O583      0.69451      .   S
    C346   O584      0.63450      .   S
    C208   O584      0.63450      .   S
    C347   O585      0.63448      .   S
    C209   O585      0.63448      .   S
    C327   O586      0.67419      .   S
    C293   O586      0.67419      .   S
    C326   O587      0.67394      .   S
    C292   O587      0.67394      .   S
    C113   O588      0.54467      .   S
    C289   O588      0.54467      .   S
    C112   O589      0.54466      .   S
    C288   O589      0.54466      .   S
    C345   O590      0.64176      .   S
    C209   O590      0.64176      .   S
    C344   O591      0.64178      .   S
    C208   O591      0.64178      .   S
    C289   O592      0.70217      .   S
    C287   O592      0.70217      .   S
    C288   O593      0.70218      .   S
    C286   O593      0.70218      .   S
    C208   O594      0.74979      .   S
    C210   O594      0.74979      .   S
    C209   O595      0.74974      .   S
    C211   O595      0.74974      .   S
    C3     O596      1.18102      .   S
    C307   O596      1.18102      .   S
    C3     O597      1.11935      .   S
    C333   O597      1.11935      .   S
    C2     O598      1.18094      .   S
    C306   O598      1.18094      .   S
    C2     O599      1.11933      .   S
    C332   O599      1.11933      .   S
    C292   O600      0.54473      .   S
    C116   O600      0.54473      .   S
    C292   O601      0.69413      .   S
    C294   O601      0.69413      .   S
    C293   O602      0.54470      .   S
    C117   O602      0.54470      .   S
    C293   O603      0.69388      .   S
    C295   O603      0.69388      .   S
    C65    O604      0.54501      .   S
    C213   O604      0.54501      .   S
    C64    O605      0.54533      .   S
    C212   O605      0.54533      .   S
    C46    O606      0.54487      .   S
    C182   O606      0.54487      .   S
    C47    O607      0.54487      .   S
    C183   O607      0.54487      .   S
    C211   O608      0.70008      .   S
    C213   O608      0.70008      .   S
    C211   O609      0.70087      .   S
    C219   O609      0.70087      .   S
    C210   O610      0.70007      .   S
    C212   O610      0.70007      .   S
    C210   O611      0.70081      .   S
    C218   O611      0.70081      .   S
    C287   O612      0.70188      .   S
    C295   O612      0.70188      .   S
    C287   O613      0.74067      .   S
    C283   O613      0.74067      .   S
    C286   O614      0.70188      .   S
    C294   O614      0.70188      .   S
    C286   O615      0.74062      .   S
    C282   O615      0.74062      .   S
    C213   O616      0.69706      .   S
    C215   O616      0.69706      .   S
    C212   O617      0.69701      .   S
    C214   O617      0.69701      .   S
    C295   O618      0.54388      .   S
    C118   O618      0.54388      .   S
    C294   O619      0.54398      .   S
    C119   O619      0.54398  1_655   S
    C306   O620      0.67518      .   S
    C182   O620      0.67518      .   S
    C306   O621      0.67334      .   S
    C180   O621      0.67334      .   S
    C307   O622      0.67519      .   S
    C183   O622      0.67519      .   S
    C307   O623      0.67379      .   S
    C181   O623      0.67379      .   S
    C182   O624      0.69283      .   S
    C184   O624      0.69283      .   S
    C183   O625      0.69279      .   S
    C185   O625      0.69279      .   S
    C108   O626      0.54484      .   S
    C280   O626      0.54484      .   S
    C109   O627      0.54488      .   S
    C281   O627      0.54488      .   S
    C333   O628      0.64741      .   S
    C143   O628      0.64741      .   S
    C332   O629      0.64741      .   S
    C142   O629      0.64741      .   S
    C68    O630      0.54519      .   S
    C218   O630      0.54519      .   S
    C69    O631      0.54519      .   S
    C219   O631      0.54519      .   S
    C218   O632      0.66795      .   S
    C312   O632      0.66795      .   S
    C219   O633      0.66794      .   S
    C313   O633      0.66794      .   S
    C283   O634      0.70225      .   S
    C281   O634      0.70225      .   S
    C283   O635      0.67661      .   S
    C324   O635      0.67661      .   S
    C282   O636      0.70225      .   S
    C280   O636      0.70225      .   S
    C282   O637      0.67678  1_455   S
    C325   O637      0.67678      .   S
    C215   O638      0.54467      .   S
    C67    O638      0.54467      .   S
    C215   O639      0.70272      .   S
    C217   O639      0.70272      .   S
    C214   O640      0.54466      .   S
    C66    O640      0.54466      .   S
    C214   O641      0.70250      .   S
    C216   O641      0.70250      .   S
    C335   O642      0.62470      .   S
    C143   O642      0.62470      .   S
    C334   O643      0.62471      .   S
    C142   O643      0.62471      .   S
    C44    O644      0.54490      .   S
    C180   O644      0.54490      .   S
    C45    O645      0.54499      .   S
    C181   O645      0.54499      .   S
    C280   O646      0.69188      .   S
    C278   O646      0.69188      .   S
    C281   O647      0.69659      .   S
    C279   O647      0.69659      .   S
    C180   O648      0.69642      .   S
    C178   O648      0.69642      .   S
    C181   O649      0.69593      .   S
    C179   O649      0.69593      .   S
    C143   O650      0.75575      .   S
    C145   O650      0.75575      .   S
    C142   O651      0.75570      .   S
    C144   O651      0.75570      .   S
    C184   O652      0.54349      .   S
    C48    O652      0.54349      .   S
    C184   O653      0.70304      .   S
    C176   O653      0.70304      .   S
    C185   O654      0.54344      .   S
    C49    O654      0.54344      .   S
    C185   O655      0.70305      .   S
    C177   O655      0.70305      .   S
    C324   O656      0.66901      .   S
    C284   O656      0.66901      .   S
    C325   O657      0.66902      .   S
    C285   O657      0.66902      .   S
    C312   O658      0.67609      .   S
    C216   O658      0.67609      .   S
    C313   O659      0.67611      .   S
    C217   O659      0.67611      .   S
    C216   O660      0.74340      .   S
    C220   O660      0.74340      .   S
    C217   O661      0.74308      .   S
    C221   O661      0.74308      .   S
    C278   O662      0.54634      .   S
    C106   O662      0.54634      .   S
    C278   O663      0.70239      .   S
    C277   O663      0.70239  1_655   S
    C279   O664      0.54503      .   S
    C107   O664      0.54503      .   S
    C279   O665      0.69848      .   S
    C276   O665      0.69848      .   S
    C27    O666      0.54484      .   S
    C153   O666      0.54484      .   S
    C26    O667      0.54486      .   S
    C152   O667      0.54486      .   S
    C178   O668      0.70197      .   S
    C176   O668      0.70197      .   S
    C178   O669      0.54454      .   S
    C42    O669      0.54454      .   S
    C179   O670      0.70196      .   S
    C177   O670      0.70196      .   S
    C179   O671      0.54454      .   S
    C43    O671      0.54454      .   S
    C176   O672      0.74313      .   S
    C172   O672      0.74313      .   S
    C177   O673      0.74314      .   S
    C173   O673      0.74314      .   S
    C144   O674      0.70152      .   S
    C152   O674      0.70152      .   S
    C144   O675      0.69847      .   S
    C147   O675      0.69847      .   S
    C145   O676      0.70151      .   S
    C153   O676      0.70151      .   S
    C145   O677      0.69865  1_655   S
    C146   O677      0.69865      .   S
    C70    O678      0.54452      .   S
    C222   O678      0.54452      .   S
    C71    O679      0.54449      .   S
    C223   O679      0.54449      .   S
    C284   O680      0.70151      .   S
    C276   O680      0.70151      .   S
    C284   O681      0.54485      .   S
    C110   O681      0.54485      .   S
    C285   O682      0.70151      .   S
    C277   O682      0.70151      .   S
    C285   O683      0.54483      .   S
    C111   O683      0.54483      .   S
    C153   O684      0.66901      .   S
    C301   O684      0.66901      .   S
    C152   O685      0.66903      .   S
    C300   O685      0.66903      .   S
    C277   O686      0.75572      .   S
    C275   O686      0.75572      .   S
    C276   O687      0.75570      .   S
    C274   O687      0.75570      .   S
    C220   O688      0.70194      .   S
    C222   O688      0.70194      .   S
    C220   O689      0.70301      .   S
    C228   O689      0.70301      .   S
    C221   O690      0.70195      .   S
    C223   O690      0.70195      .   S
    C221   O691      0.70259      .   S
    C229   O691      0.70259      .   S
    C23    O692      0.54503      .   S
    C147   O692      0.54503      .   S
    C22    O693      0.54503      .   S
    C146   O693      0.54503      .   S
    C222   O694      0.69587      .   S
    C224   O694      0.69587      .   S
    C223   O695      0.69594      .   S
    C225   O695      0.69594      .   S
    C147   O696      0.69665      .   S
    C149   O696      0.69665      .   S
    C146   O697      0.69667      .   S
    C148   O697      0.69667      .   S
    C172   O698      0.67612      .   S
    C304   O698      0.67612      .   S
    C172   O699      0.70268      .   S
    C170   O699      0.70268      .   S
    C173   O700      0.67612      .   S
    C305   O700      0.67612      .   S
    C173   O701      0.70269      .   S
    C171   O701      0.70269      .   S
    C304   O702      0.66792      .   S
    C174   O702      0.66792      .   S
    C305   O703      0.66788      .   S
    C175   O703      0.66788      .   S
    C301   O704      0.67677      .   S
    C150   O704      0.67677  1_455   S
    C300   O705      0.67662      .   S
    C151   O705      0.67662      .   S
    C77    O706      0.54343      .   S
    C229   O706      0.54343      .   S
    C76    O707      0.54348      .   S
    C228   O707      0.54348      .   S
    C229   O708      0.69329      .   S
    C227   O708      0.69329      .   S
    C228   O709      0.69282      .   S
    C226   O709      0.69282      .   S
    C274   O710      0.62471      .   S
    C358   O710      0.62471      .   S
    C274   O711      0.64730      .   S
    C356   O711      0.64730      .   S
    C275   O712      0.62470      .   S
    C359   O712      0.62470      .   S
    C275   O713      0.64737      .   S
    C357   O713      0.64737      .   S
    C224   O714      0.54498      .   S
    C72    O714      0.54498      .   S
    C224   O715      0.67384      .   S
    C314   O715      0.67384      .   S
    C225   O716      0.54498      .   S
    C73    O716      0.54498      .   S
    C225   O717      0.67379      .   S
    C315   O717      0.67379      .   S
    C149   O718      0.70225      .   S
    C151   O718      0.70225      .   S
    C149   O719      0.54484      .   S
    C25    O719      0.54484      .   S
    C148   O720      0.70226      .   S
    C150   O720      0.70226      .   S
    C148   O721      0.54482      .   S
    C24    O721      0.54482      .   S
    C38    O722      0.54467      .   S
    C170   O722      0.54467      .   S
    C39    O723      0.54467      .   S
    C171   O723      0.54467      .   S
    C170   O724      0.69704      .   S
    C168   O724      0.69704      .   S
    C171   O725      0.69707      .   S
    C169   O725      0.69707      .   S
    C150   O726      0.74067      .   S
    C154   O726      0.74067      .   S
    C151   O727      0.74060      .   S
    C155   O727      0.74060      .   S
    C35    O728      0.54397  1_655   S
    C162   O728      0.54397      .   S
    C34    O729      0.54382      .   S
    C163   O729      0.54382      .   S
    C174   O730      0.54520      .   S
    C40    O730      0.54520      .   S
    C174   O731      0.70064      .   S
    C166   O731      0.70064      .   S
    C175   O732      0.54520      .   S
    C41    O732      0.54520      .   S
    C175   O733      0.70051      .   S
    C167   O733      0.70051      .   S
    C357   O734      1.11960      .   S
    C5     O734      1.11960      .   S
    C356   O735      1.11973      .   S
    C4     O735      1.11973      .   S
    C227   O736      0.67518      .   S
    C315   O736      0.67518      .   S
    C227   O737      0.54494      .   S
    C75    O737      0.54494      .   S
    C226   O738      0.67519      .   S
    C314   O738      0.67519      .   S
    C226   O739      0.54494      .   S
    C74    O739      0.54494      .   S
    C315   O740      1.18049      .   S
    C5     O740      1.18049  1_545   S
    C314   O741      1.18061      .   S
    C4     O741      1.18061  1_545   S
    C162   O742      0.70189      .   S
    C154   O742      0.70189      .   S
    C162   O743      0.69387      .   S
    C160   O743      0.69387      .   S
    C163   O744      0.70189      .   S
    C155   O744      0.70189      .   S
    C163   O745      0.69388      .   S
    C161   O745      0.69388      .   S
    C168   O746      0.70006      .   S
    C166   O746      0.70006      .   S
    C168   O747      0.54508      .   S
    C36    O747      0.54508      .   S
    C169   O748      0.70004      .   S
    C167   O748      0.70004      .   S
    C169   O749      0.54502      .   S
    C37    O749      0.54502      .   S
    C167   O750      0.74982      .   S
    C165   O750      0.74982      .   S
    C166   O751      0.75005      .   S
    C164   O751      0.75005      .   S
    C155   O752      0.70187      .   S
    C157   O752      0.70187      .   S
    C154   O753      0.70219      .   S
    C156   O753      0.70219      .   S
    C32    O754      0.54474      .   S
    C160   O754      0.54474      .   S
    C33    O755      0.54470      .   S
    C161   O755      0.54470      .   S
    C160   O756      0.67424      .   S
    C302   O756      0.67424      .   S
    C161   O757      0.67419      .   S
    C303   O757      0.67419      .   S
    C165   O758      0.64150      .   S
    C337   O758      0.64150      .   S
    C165   O759      0.63489      .   S
    C339   O759      0.63489      .   S
    C164   O760      0.64174      .   S
    C336   O760      0.64174      .   S
    C164   O761      0.63456      .   S
    C338   O761      0.63456      .   S
    C157   O762      0.54474      .   S
    C29    O762      0.54474      .   S
    C157   O763      0.69468      .   S
    C159   O763      0.69468      .   S
    C156   O764      0.54467      .   S
    C28    O764      0.54467      .   S
    C156   O765      0.69436      .   S
    C158   O765      0.69436      .   S
    C302   O766      0.67412      .   S
    C158   O766      0.67412      .   S
    C303   O767      0.67411      .   S
    C159   O767      0.67411      .   S
    C328   O768      1.27149      .   S
    C6     O768      1.27149      .   S
    C329   O769      1.27133      .   S
    C7     O769      1.27133      .   S
    C336   O770      1.27150      .   S
    C4     O770      1.27150      .   S
    C337   O771      1.27144      .   S
    C5     O771      1.27144      .   S
    C344   O772      1.27203      .   S
    C2     O772      1.27203      .   S
    C345   O773      1.27132      .   S
    C3     O773      1.27132      .   S
    C352   O774      1.27116      .   S
    C0     O774      1.27116      .   S
    C353   O775      1.27196      .   S
    C1     O775      1.27196      .   S
