# CIF file generated by openbabel 2.4.90, see http://openbabel.sf.net
data_I
_chemical_name_common ''
_cell_length_a 14.074
_cell_length_b 16.943
_cell_length_c 16.943
_cell_angle_alpha 111.854
_cell_angle_beta 91.018
_cell_angle_gamma 91.021
_space_group_name_H-M_alt 'P 1'
_space_group_name_Hall 'P 1'
loop_
    _symmetry_equiv_pos_as_xyz
    x,y,z
loop_
    _atom_site_label
    _atom_site_type_symbol
    _atom_site_fract_x
    _atom_site_fract_y
    _atom_site_fract_z
    _atom_site_occupancy
    Zr0     Zr   0.37500   0.46380   0.03610   1.000
    Zr1     Zr   0.37500   0.46379   0.53618   1.000
    Zr2     Zr   0.37500   0.96379   0.03619   1.000
    Zr3     Zr   0.37500   0.96379   0.53618   1.000
    Zr4     Zr   0.87499   0.46380   0.03619   1.000
    Zr5     Zr   0.87499   0.46380   0.53618   1.000
    Zr6     Zr   0.87498   0.96379   0.03619   1.000
    Zr7     Zr   0.87498   0.96379   0.53618   1.000
    Zr8     Zr   0.12502   0.03619   0.46378   1.000
    Zr9     Zr   0.12502   0.03619   0.96377   1.000
    Zr10    Zr   0.12501   0.53618   0.46378   1.000
    Zr11    Zr   0.12501   0.53618   0.96377   1.000
    Zr12    Zr   0.62500   0.03619   0.46378   1.000
    Zr13    Zr   0.62501   0.03619   0.96377   1.000
    Zr14    Zr   0.62500   0.53619   0.46378   1.000
    Zr15    Zr   0.62500   0.53618   0.96377   1.000
    N16     N    0.25000   0.74999   0.99996   1.000
    O17     O    0.28902   0.82504   0.01158   1.000
    O18     O    0.21098   0.67494   0.98836   1.000
    N19     N    0.25001   0.24999   0.99995   1.000
    O20     O    0.21099   0.17494   0.98834   1.000
    O21     O    0.28903   0.32504   0.01155   1.000
    N22     N    0.75000   0.24999   0.99998   1.000
    O23     O    0.71098   0.17494   0.98837   1.000
    O24     O    0.78902   0.32504   0.01159   1.000
    N25     N    0.25001   0.24999   0.49997   1.000
    O26     O    0.21099   0.17494   0.48837   1.000
    O27     O    0.28903   0.32504   0.51158   1.000
    N28     N    0.50000   0.99999   0.74993   1.000
    O29     O    0.46098   0.98839   0.67491   1.000
    O30     O    0.53903   0.01159   0.82500   1.000
    N31     N    0.00000   0.49999   0.24997   1.000
    O32     O    0.96097   0.48839   0.17493   1.000
    O33     O    0.03903   0.51159   0.32502   1.000
    N34     N    0.50000   0.49999   0.24991   1.000
    O35     O    0.46098   0.48839   0.17488   1.000
    O36     O    0.53902   0.51159   0.32499   1.000
    N37     N    0.50000   0.49999   0.74997   1.000
    O38     O    0.46098   0.48839   0.67493   1.000
    O39     O    0.53903   0.51159   0.82502   1.000
    N40     N    0.25000   0.74999   0.49997   1.000
    O41     O    0.21098   0.67494   0.48837   1.000
    O42     O    0.28902   0.82503   0.51158   1.000
    N43     N    0.75000   0.24999   0.49997   1.000
    O44     O    0.78902   0.32504   0.51158   1.000
    O45     O    0.71098   0.17494   0.48835   1.000
    N46     N    0.00000   0.99999   0.24998   1.000
    O47     O    0.96097   0.98839   0.17494   1.000
    O48     O    0.03903   0.01159   0.32503   1.000
    N49     N    0.00000   0.99999   0.74996   1.000
    O50     O    0.96097   0.98839   0.67492   1.000
    O51     O    0.03903   0.01159   0.82501   1.000
    N52     N    0.75000   0.74999   0.49998   1.000
    O53     O    0.78902   0.82504   0.51158   1.000
    O54     O    0.71098   0.67494   0.48838   1.000
    N55     N    0.00000   0.49999   0.74997   1.000
    O56     O    0.03903   0.51159   0.82502   1.000
    O57     O    0.96097   0.48839   0.67493   1.000
    N58     N    0.50000   0.99999   0.24989   1.000
    O59     O    0.46097   0.98839   0.17474   1.000
    O60     O    0.53903   0.01159   0.32498   1.000
    N61     N    0.75000   0.74999   0.99998   1.000
    O62     O    0.78901   0.82504   0.01159   1.000
    O63     O    0.71098   0.67494   0.98837   1.000
loop_
    _geom_bond_atom_site_label_1
    _geom_bond_atom_site_label_2
    _geom_bond_distance
    _geom_bond_site_symmetry_2
    _ccdc_geom_bond_type
    N16    O17       1.31991  1_556   S
    Zr2    O17       2.51311      .   S
    N16    O18       1.31998      .   S
    Zr11   O18       2.51318      .   S
    N19    O20       1.31993      .   S
    Zr9    O20       2.51324      .   S
    N19    O21       1.32000  1_556   S
    Zr0    O21       2.51330      .   S
    N22    O23       1.31997      .   S
    Zr13   O23       2.51315      .   S
    N22    O24       1.31991  1_556   S
    Zr4    O24       2.51314      .   S
    N25    O26       1.31994      .   S
    Zr8    O26       2.51313      .   S
    N25    O27       1.31993      .   S
    Zr1    O27       2.51313      .   S
    N28    O29       1.31958      .   S
    Zr3    O29       2.51283      .   S
    N28    O30       1.32029  1_565   S
    Zr13   O30       2.51349      .   S
    N31    O32       1.31989  1_455   S
    Zr4    O32       2.51312      .   S
    N31    O33       1.32007      .   S
    Zr10   O33       2.51328      .   S
    N34    O35       1.31978      .   S
    Zr0    O35       2.51359      .   S
    N34    O36       1.32043      .   S
    Zr14   O36       2.51372      .   S
    N37    O38       1.31988      .   S
    Zr1    O38       2.51310      .   S
    N37    O39       1.31999      .   S
    Zr15   O39       2.51322      .   S
    N40    O41       1.31996      .   S
    Zr10   O41       2.51312      .   S
    N40    O42       1.31991      .   S
    Zr3    O42       2.51314      .   S
    N43    O44       1.31992      .   S
    Zr5    O44       2.51310      .   S
    N43    O45       1.31990      .   S
    Zr12   O45       2.51322      .   S
    N46    O47       1.31996  1_455   S
    Zr6    O47       2.51318      .   S
    N46    O48       1.32000  1_565   S
    Zr8    O48       2.51323      .   S
    N49    O50       1.31993  1_455   S
    Zr7    O50       2.51307      .   S
    N49    O51       1.32002  1_565   S
    Zr9    O51       2.51334      .   S
    N52    O53       1.31995      .   S
    Zr7    O53       2.51310      .   S
    N52    O54       1.31992      .   S
    Zr14   O54       2.51316      .   S
    N55    O56       1.32004      .   S
    Zr11   O56       2.51326      .   S
    N55    O57       1.31991  1_455   S
    Zr5    O57       2.51314      .   S
    N58    O59       1.32150      .   S
    Zr2    O59       2.51027      .   S
    N58    O60       1.32066  1_565   S
    Zr12   O60       2.51386      .   S
    N61    O62       1.31995  1_556   S
    Zr6    O62       2.51314      .   S
    N61    O63       1.31996      .   S
    Zr15   O63       2.51314      .   S
