# CIF file generated by openbabel 2.4.90, see http://openbabel.sf.net
data_I
_chemical_name_common ''
_cell_length_a 14.074
_cell_length_b 16.943
_cell_length_c 16.943
_cell_angle_alpha 111.854
_cell_angle_beta 91.018
_cell_angle_gamma 91.021
_space_group_name_H-M_alt 'P 1'
_space_group_name_Hall 'P 1'
loop_
    _symmetry_equiv_pos_as_xyz
    x,y,z
loop_
    _atom_site_label
    _atom_site_type_symbol
    _atom_site_fract_x
    _atom_site_fract_y
    _atom_site_fract_z
    _atom_site_occupancy
    Zr0     Zr   0.37500   0.46380   0.03610   1.000
    Zr1     Zr   0.37500   0.46379   0.53618   1.000
    Zr2     Zr   0.37500   0.96379   0.03619   1.000
    Zr3     Zr   0.37500   0.96379   0.53618   1.000
    Zr4     Zr   0.87499   0.46380   0.03619   1.000
    Zr5     Zr   0.87499   0.46380   0.53618   1.000
    Zr6     Zr   0.87498   0.96379   0.03619   1.000
    Zr7     Zr   0.87498   0.96379   0.53618   1.000
    Zr8     Zr   0.12502   0.03619   0.46378   1.000
    Zr9     Zr   0.12502   0.03619   0.96377   1.000
    Zr10    Zr   0.12501   0.53618   0.46378   1.000
    Zr11    Zr   0.12501   0.53618   0.96377   1.000
    Zr12    Zr   0.62500   0.03619   0.46378   1.000
    Zr13    Zr   0.62501   0.03619   0.96377   1.000
    Zr14    Zr   0.62500   0.53619   0.46378   1.000
    Zr15    Zr   0.62500   0.53618   0.96377   1.000
    N16     N    0.25000   0.74999   0.99996   1.000
    O17     O    0.28902   0.82504   0.01158   1.000
    O18     O    0.21098   0.67494   0.98836   1.000
    N19     N    0.25001   0.24999   0.99995   1.000
    O20     O    0.21099   0.17494   0.98834   1.000
    O21     O    0.28903   0.32504   0.01155   1.000
    N22     N    0.75000   0.24999   0.99998   1.000
    O23     O    0.71098   0.17494   0.98837   1.000
    O24     O    0.78902   0.32504   0.01159   1.000
    N25     N    0.25001   0.24999   0.49997   1.000
    O26     O    0.21099   0.17494   0.48837   1.000
    O27     O    0.28903   0.32504   0.51158   1.000
    N28     N    0.50000   0.99999   0.74993   1.000
    O29     O    0.46098   0.98839   0.67491   1.000
    O30     O    0.53903   0.01159   0.82500   1.000
    N31     N    0.00000   0.49999   0.24997   1.000
    O32     O    0.96097   0.48839   0.17493   1.000
    O33     O    0.03903   0.51159   0.32502   1.000
    N34     N    0.50000   0.49999   0.24991   1.000
    O35     O    0.46098   0.48839   0.17488   1.000
    O36     O    0.53902   0.51159   0.32499   1.000
    N37     N    0.50000   0.49999   0.74997   1.000
    O38     O    0.46098   0.48839   0.67493   1.000
    O39     O    0.53903   0.51159   0.82502   1.000
    N40     N    0.25000   0.74999   0.49997   1.000
    O41     O    0.21098   0.67494   0.48837   1.000
    O42     O    0.28902   0.82503   0.51158   1.000
    N43     N    0.75000   0.24999   0.49997   1.000
    O44     O    0.78902   0.32504   0.51158   1.000
    O45     O    0.71098   0.17494   0.48835   1.000
    N46     N    0.00000   0.99999   0.24998   1.000
    O47     O    0.96097   0.98839   0.17494   1.000
    O48     O    0.03903   0.01159   0.32503   1.000
    N49     N    0.00000   0.99999   0.74996   1.000
    O50     O    0.96097   0.98839   0.67492   1.000
    O51     O    0.03903   0.01159   0.82501   1.000
    N52     N    0.21176   0.04754   0.12344   1.000
    O53     O    0.25257   0.02660   0.10163   1.000
    N54     N    0.75000   0.74999   0.49998   1.000
    O55     O    0.78902   0.82504   0.51158   1.000
    O56     O    0.71098   0.67494   0.48838   1.000
    N57     N    0.00000   0.49999   0.74997   1.000
    O58     O    0.03903   0.51159   0.82502   1.000
    O59     O    0.96097   0.48839   0.67493   1.000
    N60     N    0.50000   0.99999   0.24989   1.000
    O61     O    0.46097   0.98839   0.17474   1.000
    O62     O    0.53903   0.01159   0.32498   1.000
    N63     N    0.53825   0.37653   0.45244   1.000
    O64     O    0.49744   0.39835   0.47337   1.000
    N65     N    0.96174   0.62345   0.04750   1.000
    O66     O    0.00256   0.60163   0.02657   1.000
    N67     N    0.78824   0.95244   0.37652   1.000
    O68     O    0.74743   0.97338   0.39833   1.000
    N69     N    0.78824   0.45244   0.87651   1.000
    O70     O    0.74743   0.47338   0.89832   1.000
    N71     N    0.78824   0.45245   0.37652   1.000
    O72     O    0.74743   0.47338   0.39833   1.000
    N73     N    0.03826   0.87653   0.45244   1.000
    O74     O    0.99744   0.89834   0.47337   1.000
    N75     N    0.96175   0.12345   0.54752   1.000
    O76     O    0.00256   0.10164   0.52658   1.000
    N77     N    0.46176   0.62345   0.04752   1.000
    O78     O    0.50257   0.60163   0.02658   1.000
    N79     N    0.75000   0.74999   0.99998   1.000
    O80     O    0.78901   0.82504   0.01159   1.000
    O81     O    0.71098   0.67494   0.98837   1.000
    N82     N    0.78824   0.95244   0.87651   1.000
    O83     O    0.74743   0.97338   0.89832   1.000
    N84     N    0.96174   0.12346   0.04753   1.000
    O85     O    0.00256   0.10164   0.02659   1.000
    N86     N    0.28825   0.95244   0.37652   1.000
    O87     O    0.24744   0.97338   0.39833   1.000
    N88     N    0.46176   0.12346   0.04752   1.000
    O89     O    0.50257   0.10164   0.02658   1.000
    N90     N    0.46176   0.62345   0.54751   1.000
    O91     O    0.50257   0.60163   0.52658   1.000
    N92     N    0.53825   0.37653   0.95243   1.000
    O93     O    0.49744   0.39835   0.97335   1.000
    N94     N    0.03826   0.37653   0.95243   1.000
    O95     O    0.99744   0.39835   0.97337   1.000
    N96     N    0.71175   0.04753   0.62340   1.000
    O97     O    0.75256   0.02660   0.60159   1.000
    N98     N    0.03826   0.87652   0.95243   1.000
    O99     O    0.99744   0.89834   0.97337   1.000
    N100    N    0.21176   0.04754   0.62340   1.000
    O101    O    0.25257   0.02660   0.60159   1.000
    N102    N    0.71175   0.04754   0.12344   1.000
    O103    O    0.75256   0.02660   0.10163   1.000
    N104    N    0.28826   0.45245   0.87651   1.000
    O105    O    0.24745   0.47338   0.89832   1.000
    N106    N    0.21176   0.54753   0.12344   1.000
    O107    O    0.25257   0.52660   0.10160   1.000
    N108    N    0.96174   0.62345   0.54752   1.000
    O109    O    0.00256   0.60163   0.52658   1.000
    N110    N    0.46176   0.12345   0.54751   1.000
    O111    O    0.50257   0.10164   0.52658   1.000
    N112    N    0.28825   0.95244   0.87651   1.000
    O113    O    0.24745   0.97338   0.89832   1.000
    N114    N    0.71174   0.54753   0.12344   1.000
    O115    O    0.75255   0.52660   0.10163   1.000
    N116    N    0.71175   0.54753   0.62340   1.000
    O117    O    0.75256   0.52660   0.60159   1.000
    N118    N    0.53824   0.87653   0.45244   1.000
    O119    O    0.49743   0.89834   0.47337   1.000
    N120    N    0.28826   0.45245   0.37652   1.000
    O121    O    0.24745   0.47338   0.39833   1.000
    N122    N    0.53824   0.87652   0.95243   1.000
    O123    O    0.49743   0.89834   0.97337   1.000
    N124    N    0.21176   0.54753   0.62340   1.000
    O125    O    0.25257   0.52660   0.60159   1.000
    N126    N    0.03826   0.37653   0.45244   1.000
    O127    O    0.99744   0.39835   0.47337   1.000
loop_
    _geom_bond_atom_site_label_1
    _geom_bond_atom_site_label_2
    _geom_bond_distance
    _geom_bond_site_symmetry_2
    _ccdc_geom_bond_type
    N16    O17       1.31991  1_556   S
    Zr2    O17       2.51311      .   S
    N16    O18       1.31998      .   S
    Zr11   O18       2.51318      .   S
    N19    O20       1.31993      .   S
    Zr9    O20       2.51324      .   S
    N19    O21       1.32000  1_556   S
    Zr0    O21       2.51330      .   S
    N22    O23       1.31997      .   S
    Zr13   O23       2.51315      .   S
    N22    O24       1.31991  1_556   S
    Zr4    O24       2.51314      .   S
    N25    O26       1.31994      .   S
    Zr8    O26       2.51313      .   S
    N25    O27       1.31993      .   S
    Zr1    O27       2.51313      .   S
    N28    O29       1.31958      .   S
    Zr3    O29       2.51283      .   S
    N28    O30       1.32029  1_565   S
    Zr13   O30       2.51349      .   S
    N31    O32       1.31989  1_455   S
    Zr4    O32       2.51312      .   S
    N31    O33       1.32007      .   S
    Zr10   O33       2.51328      .   S
    N34    O35       1.31978      .   S
    Zr0    O35       2.51359      .   S
    N34    O36       1.32043      .   S
    Zr14   O36       2.51372      .   S
    N37    O38       1.31988      .   S
    Zr1    O38       2.51310      .   S
    N37    O39       1.31999      .   S
    Zr15   O39       2.51322      .   S
    N40    O41       1.31996      .   S
    Zr10   O41       2.51312      .   S
    N40    O42       1.31991      .   S
    Zr3    O42       2.51314      .   S
    N43    O44       1.31992      .   S
    Zr5    O44       2.51310      .   S
    N43    O45       1.31990      .   S
    Zr12   O45       2.51322      .   S
    N46    O47       1.31996  1_455   S
    Zr6    O47       2.51318      .   S
    N46    O48       1.32000  1_565   S
    Zr8    O48       2.51323      .   S
    N49    O50       1.31993  1_455   S
    Zr7    O50       2.51307      .   S
    N49    O51       1.32002  1_565   S
    Zr9    O51       2.51334      .   S
    N52    O53       0.71378      .   S
    Zr2    O53       2.14133  1_565   S
    N54    O55       1.31995      .   S
    Zr7    O55       2.51310      .   S
    N54    O56       1.31992      .   S
    Zr14   O56       2.51316      .   S
    N57    O58       1.32004      .   S
    Zr11   O58       2.51326      .   S
    N57    O59       1.31991  1_455   S
    Zr5    O59       2.51314      .   S
    N60    O61       1.32150      .   S
    Zr2    O61       2.51027      .   S
    N60    O62       1.32066  1_565   S
    Zr12   O62       2.51386      .   S
    N63    O64       0.71382      .   S
    Zr1    O64       2.14145      .   S
    N65    O66       0.71391  1_655   S
    Zr11   O66       2.14172  1_556   S
    N67    O68       0.71380      .   S
    Zr12   O68       2.14139  1_545   S
    N69    O70       0.71380      .   S
    Zr15   O70       2.14140      .   S
    N71    O72       0.71381      .   S
    Zr14   O72       2.14142      .   S
    N73    O74       0.71390  1_455   S
    Zr7    O74       2.14171      .   S
    N75    O76       0.71390  1_655   S
    Zr8    O76       2.14171      .   S
    N77    O78       0.71386      .   S
    Zr15   O78       2.14157  1_556   S
    N79    O80       1.31995  1_556   S
    Zr6    O80       2.51314      .   S
    N79    O81       1.31996      .   S
    Zr15   O81       2.51314      .   S
    N82    O83       0.71379      .   S
    Zr13   O83       2.14138  1_545   S
    N84    O85       0.71395  1_655   S
    Zr9    O85       2.14184  1_556   S
    N86    O87       0.71379      .   S
    Zr8    O87       2.14137  1_545   S
    N88    O89       0.71385      .   S
    Zr13   O89       2.14155  1_556   S
    N90    O91       0.71381      .   S
    Zr14   O91       2.14142      .   S
    N92    O93       0.71375      .   S
    Zr0    O93       2.14124  1_554   S
    N94    O95       0.71395  1_455   S
    Zr4    O95       2.14186  1_554   S
    N96    O97       0.71373      .   S
    Zr7    O97       2.14120  1_565   S
    N98    O99       0.71395  1_455   S
    Zr6    O99       2.14184  1_554   S
    N100   O101      0.71374      .   S
    Zr3    O101      2.14121  1_565   S
    N102   O103      0.71378      .   S
    Zr6    O103      2.14135  1_565   S
    N104   O105      0.71381      .   S
    Zr11   O105      2.14142      .   S
    N106   O107      0.71392      .   S
    Zr0    O107      2.14175      .   S
    N108   O109      0.71390  1_655   S
    Zr10   O109      2.14171      .   S
    N110   O111      0.71380      .   S
    Zr12   O111      2.14141      .   S
    N112   O113      0.71380      .   S
    Zr9    O113      2.14140  1_545   S
    N114   O115      0.71379      .   S
    Zr4    O115      2.14138      .   S
    N116   O117      0.71374      .   S
    Zr5    O117      2.14122      .   S
    N118   O119      0.71382      .   S
    Zr3    O119      2.14146      .   S
    N120   O121      0.71380      .   S
    Zr10   O121      2.14140      .   S
    N122   O123      0.71387      .   S
    Zr2    O123      2.14161  1_554   S
    N124   O125      0.71375      .   S
    Zr1    O125      2.14124      .   S
    N126   O127      0.71391  1_455   S
    Zr5    O127      2.14173      .   S
