# CIF file generated by openbabel 2.4.90, see http://openbabel.sf.net
data_I
_chemical_name_common ''
_cell_length_a 22.672
_cell_length_b 22.189
_cell_length_c 29.054
_cell_angle_alpha 90.096
_cell_angle_beta 90.041
_cell_angle_gamma 89.324
_space_group_name_H-M_alt 'P 1'
_space_group_name_Hall 'P 1'
loop_
    _symmetry_equiv_pos_as_xyz
    x,y,z
loop_
    _atom_site_label
    _atom_site_type_symbol
    _atom_site_fract_x
    _atom_site_fract_y
    _atom_site_fract_z
    _atom_site_occupancy
    Zr0     Zr   0.30739   0.83088   0.67780   1.000
    Zr1     Zr   0.80740   0.83088   0.67780   1.000
    Zr2     Zr   0.37766   0.89592   0.76660   1.000
    Zr3     Zr   0.87767   0.89592   0.76660   1.000
    Zr4     Zr   0.24243   0.87738   0.76006   1.000
    Zr5     Zr   0.74244   0.87738   0.76006   1.000
    Zr6     Zr   0.34518   0.96369   0.68573   1.000
    Zr7     Zr   0.84519   0.96369   0.68573   1.000
    Zr8     Zr   0.19255   0.16807   0.17780   1.000
    Zr9     Zr   0.69255   0.16807   0.17780   1.000
    Zr10    Zr   0.12237   0.10192   0.26620   1.000
    Zr11    Zr   0.62237   0.10192   0.26620   1.000
    Zr12    Zr   0.25761   0.12257   0.25995   1.000
    Zr13    Zr   0.75761   0.12257   0.25995   1.000
    Zr14    Zr   0.15525   0.03419   0.18574   1.000
    Zr15    Zr   0.65526   0.03419   0.18574   1.000
    Zr16    Zr   0.44226   0.32860   0.67781   1.000
    Zr17    Zr   0.94227   0.32860   0.67781   1.000
    Zr18    Zr   0.36999   0.39566   0.76593   1.000
    Zr19    Zr   0.87000   0.39566   0.76593   1.000
    Zr20    Zr   0.00536   0.37466   0.76012   1.000
    Zr21    Zr   0.50537   0.37466   0.76012   1.000
    Zr22    Zr   0.40466   0.46307   0.68436   1.000
    Zr23    Zr   0.90467   0.46307   0.68436   1.000
    Zr24    Zr   0.05523   0.66971   0.17756   1.000
    Zr25    Zr   0.55524   0.66971   0.17756   1.000
    Zr26    Zr   0.12772   0.60417   0.26592   1.000
    Zr27    Zr   0.62772   0.60417   0.26592   1.000
    Zr28    Zr   0.49235   0.62498   0.25999   1.000
    Zr29    Zr   0.99236   0.62498   0.25999   1.000
    Zr30    Zr   0.09508   0.53680   0.18424   1.000
    Zr31    Zr   0.59508   0.53680   0.18424   1.000
    N32     N    0.76888   0.37800   0.39622   1.000
    O33     O    0.85173   0.36040   0.52064   1.000
    O34     O    0.70268   0.46946   0.33509   1.000
    O35     O    0.69132   0.44027   0.29769   1.000
    O36     O    0.83186   0.41734   0.52450   1.000
    O37     O    0.73189   0.29358   0.29409   1.000
    O38     O    0.76065   0.27287   0.33004   1.000
    N39     N    0.19537   0.26478   0.54600   1.000
    O40     O    0.29512   0.29462   0.61242   1.000
    O41     O    0.22217   0.19095   0.41955   1.000
    O42     O    0.11889   0.32111   0.64472   1.000
    O43     O    0.09168   0.29854   0.60891   1.000
    O44     O    0.26452   0.32436   0.64826   1.000
    O45     O    0.16446   0.19375   0.42005   1.000
    N46     N    0.51876   0.11966   0.89729   1.000
    O47     O    0.48176   0.20372   0.79475   1.000
    O48     O    0.51005   0.22455   0.83064   1.000
    O49     O    0.44124   0.05860   0.79902   1.000
    O50     O    0.45255   0.02932   0.83623   1.000
    O51     O    0.58189   0.08004   0.02572   1.000
    O52     O    0.60189   0.13641   0.02130   1.000
    N53     N    0.30273   0.73485   0.04606   1.000
    O54     O    0.23340   0.67534   0.14829   1.000
    O55     O    0.37906   0.67858   0.14462   1.000
    O56     O    0.20273   0.70474   0.11244   1.000
    O57     O    0.33448   0.80496   0.92023   1.000
    O58     O    0.27694   0.80883   0.91964   1.000
    O59     O    0.40619   0.70024   0.10856   1.000
    N60     N    0.44492   0.23355   0.04611   1.000
    O61     O    0.51551   0.17347   0.14814   1.000
    O62     O    0.47072   0.30685   0.91969   1.000
    O63     O    0.36980   0.17669   0.14467   1.000
    O64     O    0.41312   0.30423   0.92002   1.000
    O65     O    0.34177   0.19909   0.10896   1.000
    O66     O    0.54509   0.20358   0.11249   1.000
    N67     N    0.55420   0.76627   0.54627   1.000
    O68     O    0.52767   0.69296   0.41972   1.000
    O69     O    0.48417   0.82521   0.64870   1.000
    O70     O    0.45447   0.79600   0.61260   1.000
    O71     O    0.58528   0.69562   0.42007   1.000
    O72     O    0.62981   0.82323   0.64480   1.000
    O73     O    0.65777   0.80053   0.60905   1.000
    N74     N    0.98088   0.87896   0.39684   1.000
    O75     O    0.01678   0.79492   0.29429   1.000
    O76     O    0.05918   0.93953   0.29736   1.000
    O77     O    0.04736   0.96901   0.33585   1.000
    O78     O    0.91801   0.91816   0.52548   1.000
    O79     O    0.89793   0.86202   0.52098   1.000
    O80     O    0.98853   0.77449   0.33032   1.000
    N81     N    0.23070   0.62205   0.89636   1.000
    O82     O    0.26787   0.70606   0.79424   1.000
    O83     O    0.30841   0.55971   0.79790   1.000
    O84     O    0.16789   0.58266   0.02454   1.000
    O85     O    0.14723   0.63908   0.02059   1.000
    O86     O    0.29601   0.53044   0.83515   1.000
    O87     O    0.23906   0.72713   0.83014   1.000
    N88     N    0.01876   0.11966   0.89729   1.000
    O89     O    0.01004   0.22455   0.83064   1.000
    O90     O    0.10189   0.13641   0.02130   1.000
    O91     O    0.94124   0.05860   0.79902   1.000
    O92     O    0.95256   0.02932   0.83623   1.000
    O93     O    0.98176   0.20372   0.79475   1.000
    O94     O    0.08189   0.08004   0.02572   1.000
    N95     N    0.48091   0.87896   0.39684   1.000
    O96     O    0.48882   0.77449   0.33032   1.000
    O97     O    0.51680   0.79492   0.29428   1.000
    O98     O    0.55920   0.93953   0.29735   1.000
    O99     O    0.54738   0.96901   0.33585   1.000
    O100    O    0.41802   0.91816   0.52547   1.000
    O101    O    0.39795   0.86202   0.52098   1.000
    N102    N    0.69538   0.26478   0.54600   1.000
    O103    O    0.79513   0.29462   0.61242   1.000
    O104    O    0.72218   0.19095   0.41955   1.000
    O105    O    0.59168   0.29854   0.60891   1.000
    O106    O    0.76453   0.32436   0.64826   1.000
    O107    O    0.66446   0.19375   0.42005   1.000
    O108    O    0.61890   0.32111   0.64472   1.000
    N109    N    0.05419   0.76627   0.54627   1.000
    O110    O    0.98417   0.82521   0.64870   1.000
    O111    O    0.12980   0.82323   0.64480   1.000
    O112    O    0.95447   0.79600   0.61260   1.000
    O113    O    0.15777   0.80053   0.60905   1.000
    O114    O    0.08527   0.69562   0.42007   1.000
    O115    O    0.02767   0.69296   0.41972   1.000
    N116    N    0.26887   0.37800   0.39622   1.000
    O117    O    0.33185   0.41734   0.52450   1.000
    O118    O    0.26065   0.27287   0.33004   1.000
    O119    O    0.19131   0.44027   0.29769   1.000
    O120    O    0.20268   0.46946   0.33509   1.000
    O121    O    0.35173   0.36040   0.52064   1.000
    O122    O    0.23189   0.29358   0.29409   1.000
    N123    N    0.80274   0.73485   0.04606   1.000
    O124    O    0.70274   0.70474   0.11244   1.000
    O125    O    0.90620   0.70024   0.10856   1.000
    O126    O    0.77694   0.80883   0.91964   1.000
    O127    O    0.83449   0.80496   0.92023   1.000
    O128    O    0.73340   0.67534   0.14829   1.000
    O129    O    0.87907   0.67858   0.14462   1.000
    N130    N    0.94492   0.23355   0.04611   1.000
    O131    O    0.04509   0.20358   0.11249   1.000
    O132    O    0.86980   0.17669   0.14467   1.000
    O133    O    0.84176   0.19910   0.10896   1.000
    O134    O    0.91312   0.30423   0.92002   1.000
    O135    O    0.97072   0.30685   0.91969   1.000
    O136    O    0.01550   0.17347   0.14814   1.000
    N137    N    0.93748   0.40101   0.72170   1.000
    O138    O    0.95445   0.39443   0.73131   1.000
    O139    O    0.92927   0.41653   0.71237   1.000
    O140    O    0.93867   0.38291   0.71073   1.000
    O141    O    0.92061   0.39967   0.73276   1.000
    N142    N    0.73070   0.62205   0.89636   1.000
    O143    O    0.79602   0.53044   0.83515   1.000
    O144    O    0.76788   0.70606   0.79424   1.000
    O145    O    0.80841   0.55971   0.79790   1.000
    O146    O    0.73906   0.72713   0.83014   1.000
    O147    O    0.64724   0.63908   0.02059   1.000
    O148    O    0.66789   0.58266   0.02454   1.000
    N149    N    0.68970   0.09610   0.22182   1.000
    O150    O    0.70668   0.10272   0.23135   1.000
    O151    O    0.68109   0.08062   0.21280   1.000
    O152    O    0.69041   0.11409   0.21082   1.000
    O153    O    0.67287   0.09755   0.23292   1.000
    N154    N    0.43747   0.40101   0.72170   1.000
    O155    O    0.45444   0.39443   0.73131   1.000
    O156    O    0.42927   0.41653   0.71237   1.000
    O157    O    0.43867   0.38291   0.71073   1.000
    O158    O    0.42060   0.39967   0.73276   1.000
    N159    N    0.06034   0.59809   0.22159   1.000
    O160    O    0.04335   0.60481   0.23119   1.000
    O161    O    0.06903   0.58276   0.21225   1.000
    O162    O    0.05906   0.61599   0.21058   1.000
    O163    O    0.07719   0.59961   0.23267   1.000
    N164    N    0.56035   0.59809   0.22159   1.000
    O165    O    0.56903   0.58276   0.21225   1.000
    O166    O    0.54335   0.60481   0.23119   1.000
    O167    O    0.55907   0.61599   0.21058   1.000
    O168    O    0.57719   0.59961   0.23267   1.000
    N169    N    0.81055   0.90274   0.72200   1.000
    O170    O    0.81921   0.91798   0.71293   1.000
    O171    O    0.79352   0.89640   0.73151   1.000
    O172    O    0.80976   0.88478   0.71095   1.000
    O173    O    0.82733   0.90104   0.73315   1.000
    N174    N    0.31054   0.90274   0.72200   1.000
    O175    O    0.29351   0.89640   0.73151   1.000
    O176    O    0.31920   0.91798   0.71293   1.000
    O177    O    0.30975   0.88478   0.71095   1.000
    O178    O    0.32732   0.90104   0.73315   1.000
    N179    N    0.18969   0.09610   0.22182   1.000
    O180    O    0.18108   0.08062   0.21280   1.000
    O181    O    0.20667   0.10272   0.23135   1.000
    O182    O    0.19041   0.11409   0.21082   1.000
    O183    O    0.17286   0.09755   0.23292   1.000
loop_
    _geom_bond_atom_site_label_1
    _geom_bond_atom_site_label_2
    _geom_bond_distance
    _geom_bond_site_symmetry_2
    _ccdc_geom_bond_type
    N32    O33       4.08959      .   S
    Zr17   O33       5.05246      .   S
    N32    O34       3.07607      .   S
    Zr27   O34       3.96949      .   S
    N32    O35       3.62568      .   S
    Zr31   O35       4.48511      .   S
    N32    O36       4.08682      .   S
    Zr23   O36       5.03379      .   S
    N32    O37       3.61016      .   S
    Zr9    O37       4.47092      .   S
    N32    O38       3.02803      .   S
    Zr13   O38       3.90589      .   S
    N39    O40       3.04995      .   S
    Zr16   O40       3.91807      .   S
    N39    O41       4.06323      .   S
    Zr12   O41       4.93986      .   S
    N39    O42       3.56915      .   S
    Zr20   O42       4.38249      .   S
    N39    O43       3.06415      .   S
    Zr17   O43       3.98483  1_655   S
    N39    O44       3.61414      .   S
    Zr18   O44       4.46863      .   S
    N39    O45       4.04571      .   S
    Zr10   O45       5.00540      .   S
    N46    O47       3.61076      .   S
    Zr16   O47       4.47115      .   S
    N46    O48       3.03471      .   S
    Zr21   O48       3.91379      .   S
    N46    O49       3.62120      .   S
    Zr6    O49       4.48185  1_565   S
    N46    O50       3.07810      .   S
    Zr2    O50       3.97880  1_565   S
    N46    O51       4.08872  1_556   S
    Zr15   O51       5.03809      .   S
    N46    O52       4.08342  1_556   S
    Zr9    O52       5.04004      .   S
    N53    O54       3.62016      .   S
    Zr26   O54       4.47582      .   S
    N53    O55       3.56461      .   S
    Zr28   O55       4.37912      .   S
    N53    O56       3.05818      .   S
    Zr24   O56       3.92969      .   S
    N53    O57       4.04392  1_554   S
    Zr2    O57       5.00386      .   S
    N53    O58       4.06477  1_554   S
    Zr4    O58       4.94099      .   S
    N53    O59       3.05705      .   S
    Zr25   O59       3.97950      .   S
    N60    O61       3.61693      .   S
    Zr11   O61       4.48006      .   S
    N60    O62       4.06494  1_554   S
    Zr21   O62       4.94293      .   S
    N60    O63       3.57240      .   S
    Zr12   O63       4.38497      .   S
    N60    O64       4.04843  1_554   S
    Zr18   O64       5.00918      .   S
    N60    O65       3.07277      .   S
    Zr8    O65       3.99857      .   S
    N60    O66       3.04664      .   S
    Zr9    O66       3.91558      .   S
    N67    O68       4.06528      .   S
    Zr28   O68       4.94496      .   S
    N67    O69       3.61009      .   S
    Zr2    O69       4.46447      .   S
    N67    O70       3.03789      .   S
    Zr0    O70       3.90506      .   S
    N67    O71       4.04416      .   S
    Zr27   O71       5.00324      .   S
    N67    O72       3.57271      .   S
    Zr5    O72       4.38459      .   S
    N67    O73       3.07428      .   S
    Zr1    O73       3.99879      .   S
    N74    O75       3.60095  1_655   S
    Zr24   O75       4.46055      .   S
    N74    O76       3.65918  1_655   S
    Zr14   O76       4.45119  1_545   S
    N74    O77       3.08084  1_655   S
    Zr10   O77       3.97837  1_545   S
    N74    O78       4.08942      .   S
    Zr7    O78       5.03793      .   S
    N74    O79       4.08869      .   S
    Zr1    O79       5.05041      .   S
    N74    O80       3.01900      .   S
    Zr29   O80       3.89360      .   S
    N81    O82       3.61221      .   S
    Zr0    O82       4.47353      .   S
    N81    O83       3.62454      .   S
    Zr22   O83       4.48536      .   S
    N81    O84       4.08765  1_556   S
    Zr30   O84       5.03543      .   S
    N81    O85       4.09143  1_556   S
    Zr24   O85       5.05781      .   S
    N81    O86       3.06714      .   S
    Zr18   O86       3.95838      .   S
    N81    O87       3.03325      .   S
    Zr4    O87       3.91096      .   S
    N88    O89       3.03469      .   S
    Zr20   O89       3.91377      .   S
    N88    O90       4.08342  1_556   S
    Zr8    O90       5.04004      .   S
    N88    O91       3.62114  1_455   S
    Zr7    O91       4.48179  1_565   S
    N88    O92       3.07803  1_455   S
    Zr3    O92       3.97875  1_565   S
    N88    O93       3.61071  1_455   S
    Zr17   O93       4.47111      .   S
    N88    O94       4.08873  1_556   S
    Zr14   O94       5.03810      .   S
    N95    O96       3.01923      .   S
    Zr28   O96       3.89347      .   S
    N95    O97       3.60080      .   S
    Zr25   O97       4.46042      .   S
    N95    O98       3.65894      .   S
    Zr15   O98       4.45095  1_545   S
    N95    O99       3.08061      .   S
    Zr11   O99       3.97817  1_545   S
    N95    O100      4.08967      .   S
    Zr6    O100      5.03817      .   S
    N95    O101      4.08900      .   S
    Zr0    O101      5.05069      .   S
    N102   O103      3.04995      .   S
    Zr17   O103      3.91808      .   S
    N102   O104      4.06323      .   S
    Zr13   O104      4.93986      .   S
    N102   O105      3.06421      .   S
    Zr16   O105      3.98503      .   S
    N102   O106      3.61414      .   S
    Zr19   O106      4.46863      .   S
    N102   O107      4.04571      .   S
    Zr11   O107      5.00540      .   S
    N102   O108      3.56916      .   S
    Zr21   O108      4.38250      .   S
    N109   O110      3.61004  1_455   S
    Zr3    O110      4.46440      .   S
    N109   O111      3.57270      .   S
    Zr4    O111      4.38457      .   S
    N109   O112      3.03780  1_455   S
    Zr1    O112      3.90495      .   S
    N109   O113      3.07426      .   S
    Zr0    O113      3.99876      .   S
    N109   O114      4.04416      .   S
    Zr26   O114      5.00324      .   S
    N109   O115      4.06527      .   S
    Zr29   O115      4.94493  1_655   S
    N116   O117      4.08680      .   S
    Zr22   O117      5.03377      .   S
    N116   O118      3.02803      .   S
    Zr12   O118      3.90590      .   S
    N116   O119      3.62569      .   S
    Zr30   O119      4.48511      .   S
    N116   O120      3.07608      .   S
    Zr26   O120      3.96949      .   S
    N116   O121      4.08958      .   S
    Zr16   O121      5.05245      .   S
    N116   O122      3.61017      .   S
    Zr8    O122      4.47093      .   S
    N123   O124      3.05817      .   S
    Zr25   O124      3.92969      .   S
    N123   O125      3.05700      .   S
    Zr24   O125      3.97931  1_455   S
    N123   O126      4.06477  1_554   S
    Zr5    O126      4.94099      .   S
    N123   O127      4.04392  1_554   S
    Zr3    O127      5.00386      .   S
    N123   O128      3.62016      .   S
    Zr27   O128      4.47582      .   S
    N123   O129      3.56461      .   S
    Zr29   O129      4.37912      .   S
    N130   O131      3.04669  1_655   S
    Zr8    O131      3.91562      .   S
    N130   O132      3.57238      .   S
    Zr13   O132      4.38492      .   S
    N130   O133      3.07268      .   S
    Zr9    O133      3.99845      .   S
    N130   O134      4.04834  1_554   S
    Zr19   O134      5.00909      .   S
    N130   O135      4.06490  1_554   S
    Zr20   O135      4.94286  1_455   S
    N130   O136      3.61699  1_655   S
    Zr10   O136      4.48013      .   S
    N137   O138      0.49594      .   S
    Zr20   O138      1.48781  1_455   S
    N137   O139      0.47474      .   S
    Zr23   O139      1.42423      .   S
    N137   O140      0.51289      .   S
    Zr17   O140      1.53867      .   S
    N137   O141      0.50084      .   S
    Zr19   O141      1.50253      .   S
    N142   O143      3.06718      .   S
    Zr19   O143      3.95841      .   S
    N142   O144      3.61226      .   S
    Zr1    O144      4.47358      .   S
    N142   O145      3.62460      .   S
    Zr23   O145      4.48541      .   S
    N142   O146      3.03329      .   S
    Zr5    O146      3.91100      .   S
    N142   O147      4.09137  1_556   S
    Zr25   O147      5.05774      .   S
    N142   O148      4.08759  1_556   S
    Zr31   O148      5.03537      .   S
    N149   O150      0.49747      .   S
    Zr13   O150      1.49242      .   S
    N149   O151      0.47534      .   S
    Zr15   O151      1.42601      .   S
    N149   O152      0.51231      .   S
    Zr9    O152      1.53692      .   S
    N149   O153      0.50043      .   S
    Zr11   O153      1.50129      .   S
    N154   O155      0.49599      .   S
    Zr21   O155      1.48797      .   S
    N154   O156      0.47474      .   S
    Zr22   O156      1.42423      .   S
    N154   O157      0.51289      .   S
    Zr16   O157      1.53867      .   S
    N154   O158      0.50084      .   S
    Zr18   O158      1.50253      .   S
    N159   O160      0.49720      .   S
    Zr29   O160      1.49160  1_655   S
    N159   O161      0.47552      .   S
    Zr30   O161      1.42657      .   S
    N159   O162      0.51099      .   S
    Zr24   O162      1.53296      .   S
    N159   O163      0.50074      .   S
    Zr26   O163      1.50223      .   S
    N164   O165      0.47552      .   S
    Zr31   O165      1.42657      .   S
    N164   O166      0.49726      .   S
    Zr28   O166      1.49177      .   S
    N164   O167      0.51099      .   S
    Zr25   O167      1.53296      .   S
    N164   O168      0.50074      .   S
    Zr27   O168      1.50223      .   S
    N169   O170      0.47351      .   S
    Zr7    O170      1.42052      .   S
    N169   O171      0.49678      .   S
    Zr5    O171      1.49033      .   S
    N169   O172      0.51190      .   S
    Zr1    O172      1.53569      .   S
    N169   O173      0.50064      .   S
    Zr3    O173      1.50193      .   S
    N174   O175      0.49678      .   S
    Zr4    O175      1.49033      .   S
    N174   O176      0.47351      .   S
    Zr6    O176      1.42052      .   S
    N174   O177      0.51190      .   S
    Zr0    O177      1.53569      .   S
    N174   O178      0.50064      .   S
    Zr2    O178      1.50191      .   S
    N179   O180      0.47533      .   S
    Zr14   O180      1.42600      .   S
    N179   O181      0.49748      .   S
    Zr12   O181      1.49244      .   S
    N179   O182      0.51231      .   S
    Zr8    O182      1.53693      .   S
    N179   O183      0.50043      .   S
    Zr10   O183      1.50128      .   S
