# CIF file generated by openbabel 2.4.90, see http://openbabel.sf.net
data_I
_chemical_name_common ''
_cell_length_a 20.781
_cell_length_b 12.145
_cell_length_c 12.144
_cell_angle_alpha 96.958
_cell_angle_beta 105.259
_cell_angle_gamma 74.891
_space_group_name_H-M_alt 'P 1'
_space_group_name_Hall 'P 1'
loop_
    _symmetry_equiv_pos_as_xyz
    x,y,z
loop_
    _atom_site_label
    _atom_site_type_symbol
    _atom_site_fract_x
    _atom_site_fract_y
    _atom_site_fract_z
    _atom_site_occupancy
    Lv0     Lv   0.97819   0.15140   0.54997   1.000
    Lv1     Lv   0.72817   0.45005   0.84854   1.000
    Lv2     Lv   0.22818   0.45007   0.84851   1.000
    Lv3     Lv   0.77181   0.54996   0.15151   1.000
    Lv4     Lv   0.49079   0.15874   0.67506   1.000
    Lv5     Lv   0.52180   0.84863   0.45004   1.000
    Lv6     Lv   0.02180   0.84863   0.45009   1.000
    Lv7     Lv   0.27183   0.54998   0.15146   1.000
