# CIF file generated by openbabel 2.4.90, see http://openbabel.sf.net
data_I
_chemical_name_common ''
_cell_length_a 20.781
_cell_length_b 12.145
_cell_length_c 12.144
_cell_angle_alpha 96.958
_cell_angle_beta 105.259
_cell_angle_gamma 74.891
_space_group_name_H-M_alt 'P 1'
_space_group_name_Hall 'P 1'
loop_
    _symmetry_equiv_pos_as_xyz
    x,y,z
loop_
    _atom_site_label
    _atom_site_type_symbol
    _atom_site_fract_x
    _atom_site_fract_y
    _atom_site_fract_z
    _atom_site_occupancy
    H0      H    0.60247   0.10119   0.46301   1.000
    H1      H    0.39652   0.14112   0.25514   1.000
    H2      H    0.34957   0.19066   0.42691   1.000
    C3      C    0.54736   0.11989   0.45000   1.000
    C4      C    0.43069   0.14550   0.33940   1.000
    C5      C    0.40490   0.17080   0.43520   1.000
loop_
    _geom_bond_atom_site_label_1
    _geom_bond_atom_site_label_2
    _geom_bond_distance
    _geom_bond_site_symmetry_2
    _ccdc_geom_bond_type
    H1     C4        1.08544      .   S
    C4     C5        1.37508      .   S
    H2     C5        1.09124      .   S
    C3     H0        1.07991      .   S
