# CIF file generated by openbabel 2.4.90, see http://openbabel.sf.net
data_I
_chemical_name_common ''
_cell_length_a 20.781
_cell_length_b 12.145
_cell_length_c 12.144
_cell_angle_alpha 96.958
_cell_angle_beta 105.259
_cell_angle_gamma 74.891
_space_group_name_H-M_alt 'P 1'
_space_group_name_Hall 'P 1'
loop_
    _symmetry_equiv_pos_as_xyz
    x,y,z
loop_
    _atom_site_label
    _atom_site_type_symbol
    _atom_site_fract_x
    _atom_site_fract_y
    _atom_site_fract_z
    _atom_site_occupancy
    H0      H    0.45005   0.19140   0.82902   1.000
    H1      H    0.95005   0.19139   0.82898   1.000
    H2      H    0.36958   0.21815   0.63902   1.000
    H3      H    0.86958   0.21813   0.63897   1.000
    H4      H    0.12239   0.08992   0.67532   1.000
    H5      H    0.62238   0.08991   0.67534   1.000
    H6      H    0.10249   0.10121   0.46299   1.000
    H7      H    0.60247   0.10119   0.46301   1.000
    H8      H    0.39652   0.14112   0.25514   1.000
    H9      H    0.89653   0.14110   0.25511   1.000
    H10     H    0.34957   0.19066   0.42691   1.000
    H11     H    0.84958   0.19064   0.42687   1.000
    H12     H    0.29996   0.82909   0.19124   1.000
    H13     H    0.79994   0.82908   0.19128   1.000
    H14     H    0.38045   0.63949   0.21801   1.000
    H15     H    0.88044   0.63948   0.21808   1.000
    H16     H    0.12758   0.67466   0.09005   1.000
    H17     H    0.62756   0.67465   0.09007   1.000
    H18     H    0.14758   0.46229   0.10149   1.000
    H19     H    0.64757   0.46227   0.10153   1.000
    H20     H    0.35351   0.25558   0.14135   1.000
    H21     H    0.85349   0.25557   0.14139   1.000
    H22     H    0.40042   0.42761   0.19065   1.000
    H23     H    0.90041   0.42760   0.19071   1.000
    H24     H    0.04995   0.80865   0.17109   1.000
    H25     H    0.54994   0.80864   0.17103   1.000
    H26     H    0.13042   0.78190   0.36110   1.000
    H27     H    0.63042   0.78189   0.36103   1.000
    H28     H    0.37761   0.91013   0.32470   1.000
    H29     H    0.87760   0.91011   0.32473   1.000
    H30     H    0.39751   0.89884   0.53704   1.000
    H31     H    0.89750   0.89881   0.53708   1.000
    H32     H    0.10345   0.85895   0.74495   1.000
    H33     H    0.60347   0.85891   0.74490   1.000
    H34     H    0.15041   0.80941   0.57319   1.000
    H35     H    0.65042   0.80938   0.57314   1.000
    H36     H    0.20005   0.17096   0.80870   1.000
    H37     H    0.70004   0.17094   0.80879   1.000
    H38     H    0.11956   0.36055   0.78195   1.000
    H39     H    0.61955   0.36054   0.78200   1.000
    H40     H    0.37243   0.32539   0.90995   1.000
    H41     H    0.87242   0.32537   0.90990   1.000
    H42     H    0.35243   0.53776   0.89850   1.000
    H43     H    0.85242   0.53775   0.89855   1.000
    H44     H    0.14650   0.74446   0.85864   1.000
    H45     H    0.64649   0.74445   0.85860   1.000
    H46     H    0.09959   0.57243   0.80931   1.000
    H47     H    0.59957   0.57242   0.80936   1.000
    C48     C    0.04139   0.13671   0.76360   1.000
    C49     C    0.54139   0.13670   0.76367   1.000
    C50     C    0.46950   0.17665   0.75253   1.000
    C51     C    0.96949   0.17664   0.75249   1.000
    C52     C    0.42486   0.19095   0.64660   1.000
    C53     C    0.92486   0.19095   0.64657   1.000
    C54     C    0.44957   0.16797   0.54587   1.000
    C55     C    0.94957   0.16798   0.54584   1.000
    C56     C    0.02259   0.13680   0.55653   1.000
    C57     C    0.52258   0.13679   0.55656   1.000
    C58     C    0.06722   0.12011   0.66690   1.000
    C59     C    0.56721   0.12010   0.66694   1.000
    C60     C    0.04737   0.11990   0.45597   1.000
    C61     C    0.54736   0.11989   0.45000   1.000
    C62     C    0.00237   0.12466   0.34873   1.000
    C63     C    0.43069   0.14550   0.33940   1.000
    C64     C    0.93070   0.14549   0.33942   1.000
    C65     C    0.40490   0.17080   0.43520   1.000
    C66     C    0.90491   0.17079   0.43517   1.000
    C67     C    0.20860   0.76332   0.13669   1.000
    C68     C    0.70859   0.76331   0.13671   1.000
    C69     C    0.28052   0.75251   0.17655   1.000
    C70     C    0.78051   0.75250   0.17659   1.000
    C71     C    0.32516   0.64682   0.19086   1.000
    C72     C    0.82515   0.64681   0.19092   1.000
    C73     C    0.30044   0.54600   0.16797   1.000
    C74     C    0.80042   0.54599   0.16803   1.000
    C75     C    0.22742   0.55631   0.13687   1.000
    C76     C    0.72741   0.55630   0.13691   1.000
    C77     C    0.18277   0.66650   0.12017   1.000
    C78     C    0.68276   0.66648   0.12020   1.000
    C79     C    0.20268   0.45559   0.12011   1.000
    C80     C    0.70267   0.45558   0.12015   1.000
    C81     C    0.24769   0.34859   0.12493   1.000
    C82     C    0.74768   0.34858   0.12498   1.000
    C83     C    0.31933   0.33969   0.14560   1.000
    C84     C    0.81932   0.33968   0.14572   1.000
    C85     C    0.34511   0.43558   0.17086   1.000
    C86     C    0.84509   0.43557   0.17091   1.000
    C87     C    0.45860   0.86333   0.23638   1.000
    C88     C    0.95860   0.86333   0.23640   1.000
    C89     C    0.03050   0.82340   0.24758   1.000
    C90     C    0.53050   0.82339   0.24752   1.000
    C91     C    0.07513   0.80909   0.35350   1.000
    C92     C    0.57513   0.80908   0.35344   1.000
    C93     C    0.05042   0.83206   0.45420   1.000
    C94     C    0.55042   0.83206   0.45417   1.000
    C95     C    0.47741   0.86324   0.44349   1.000
    C96     C    0.97740   0.86324   0.44354   1.000
    C97     C    0.43278   0.87993   0.33310   1.000
    C98     C    0.93277   0.87992   0.33315   1.000
    C99     C    0.45263   0.88015   0.54405   1.000
    C100    C    0.95262   0.88013   0.54410   1.000
    C101    C    0.49763   0.87538   0.65120   1.000
    C102    C    0.99761   0.87537   0.65133   1.000
    C103    C    0.06928   0.85455   0.66065   1.000
    C104    C    0.56930   0.85453   0.66060   1.000
    C105    C    0.09508   0.82925   0.56489   1.000
    C106    C    0.59509   0.82923   0.56484   1.000
    C107    C    0.29141   0.23673   0.86331   1.000
    C108    C    0.79140   0.23671   0.86330   1.000
    C109    C    0.21949   0.24754   0.82343   1.000
    C110    C    0.71948   0.24752   0.82348   1.000
    C111    C    0.17485   0.35322   0.80911   1.000
    C112    C    0.67484   0.35321   0.80916   1.000
    C113    C    0.19957   0.45405   0.83200   1.000
    C114    C    0.69956   0.45403   0.83204   1.000
    C115    C    0.27259   0.44374   0.86311   1.000
    C116    C    0.77257   0.44372   0.86316   1.000
    C117    C    0.31724   0.33355   0.87982   1.000
    C118    C    0.81723   0.33354   0.87980   1.000
    C119    C    0.29733   0.54446   0.87988   1.000
    C120    C    0.79732   0.54444   0.87993   1.000
    C121    C    0.25231   0.65145   0.87506   1.000
    C122    C    0.75230   0.65144   0.87511   1.000
    C123    C    0.18067   0.66036   0.85431   1.000
    C124    C    0.68066   0.66034   0.85436   1.000
    C125    C    0.15490   0.56446   0.82912   1.000
    C126    C    0.65489   0.56445   0.82917   1.000
loop_
    _geom_bond_atom_site_label_1
    _geom_bond_atom_site_label_2
    _geom_bond_distance
    _geom_bond_site_symmetry_2
    _ccdc_geom_bond_type
    H16    C77       1.08983      .   S
    H17    C78       1.08982      .   S
    H18    C79       1.09017      .   S
    H19    C80       1.09017      .   S
    C79    C81       1.38672      .   S
    C79    C75       1.41940      .   S
    C80    C82       1.38673      .   S
    C80    C76       1.41940      .   S
    C77    C67       1.38799      .   S
    C77    C75       1.41857      .   S
    C78    C68       1.38800      .   S
    C78    C76       1.41856      .   S
    C81    C83       1.42020      .   S
    C82    C84       1.42013      .   S
    C67    C69       1.42043      .   S
    C68    C70       1.42045      .   S
    C75    C73       1.43920      .   S
    C76    C74       1.43920      .   S
    H20    C83       1.08569      .   S
    H21    C84       1.08579      .   S
    C83    C85       1.37458      .   S
    C84    C86       1.37455      .   S
    C73    C85       1.41651      .   S
    C73    C71       1.41809      .   S
    C74    C86       1.41649      .   S
    C74    C72       1.41810      .   S
    C85    H22       1.09123      .   S
    C86    H23       1.09122      .   S
    H25    C90       1.08523      .   S
    H24    C89       1.08524      .   S
    C69    C71       1.37358      .   S
    C69    H12       1.08520      .   S
    C70    C72       1.37358      .   S
    C70    H13       1.08519      .   S
    C71    H14       1.09147      .   S
    C72    H15       1.09145      .   S
    C87    C90       1.42041      .   S
    C87    C97       1.38791      .   S
    C88    C89       1.42042  1_655   S
    C88    C98       1.38830      .   S
    C90    C92       1.37375      .   S
    C89    C91       1.37372      .   S
    H9     C64       1.08590      .   S
    H8     C63       1.08544      .   S
    H28    C97       1.08977      .   S
    H29    C98       1.08975      .   S
    C97    C95       1.41841      .   S
    C98    C96       1.41837      .   S
    C63    C65       1.37508      .   S
    C64    C62       1.42020  1_655   S
    C64    C66       1.37458      .   S
    C62    C60       1.38667      .   S
    C92    H27       1.09146      .   S
    C92    C94       1.41813      .   S
    C91    H26       1.09146      .   S
    C91    C93       1.41785      .   S
    H11    C66       1.09123      .   S
    H10    C65       1.09124      .   S
    C66    C55       1.41663      .   S
    C65    C54       1.41665      .   S
    C95    C94       1.43913      .   S
    C95    C99       1.41912      .   S
    C96    C93       1.43927  1_655   S
    C96    C100      1.41917      .   S
    C61    H7        1.07991      .   S
    C61    C57       1.48771      .   S
    C94    C106      1.41664      .   S
    C93    C105      1.41681      .   S
    C60    H6        1.09015      .   S
    C60    C56       1.41915      .   S
    H30    C99       1.09016      .   S
    H31    C100      1.09015      .   S
    C99    C101      1.38584      .   S
    C100   C102      1.38657      .   S
    C55    C56       1.43921  1_655   S
    C55    C53       1.41814      .   S
    C54    C57       1.43911      .   S
    C54    C52       1.41810      .   S
    C56    C58       1.41819      .   S
    C57    C59       1.41832      .   S
    C106   H35       1.09122      .   S
    C106   C104      1.37464      .   S
    C105   H34       1.09123      .   S
    C105   C103      1.37469      .   S
    H3     C53       1.09146      .   S
    H2     C52       1.09146      .   S
    C53    C51       1.37374      .   S
    C52    C50       1.37387      .   S
    C101   C104      1.41995      .   S
    C102   C103      1.42020  1_655   S
    C104   H33       1.08582      .   S
    C103   H32       1.08582      .   S
    C58    H4        1.08975      .   S
    C58    C48       1.38769      .   S
    C59    H5        1.08977      .   S
    C59    C49       1.38797      .   S
    C51    C48       1.42054  1_655   S
    C51    H1        1.08525      .   S
    C50    C49       1.42041      .   S
    C50    H0        1.08522      .   S
    H38    C111      1.09145      .   S
    H39    C112      1.09146      .   S
    H36    C109      1.08518      .   S
    H37    C110      1.08519      .   S
    C111   C109      1.37358      .   S
    C111   C113      1.41811      .   S
    C112   C110      1.37359      .   S
    C112   C114      1.41810      .   S
    H46    C125      1.09122      .   S
    H47    C126      1.09122      .   S
    C109   C107      1.42044      .   S
    C110   C108      1.42040      .   S
    C125   C113      1.41649      .   S
    C125   C123      1.37455      .   S
    C126   C114      1.41650      .   S
    C126   C124      1.37455      .   S
    C113   C115      1.43920      .   S
    C114   C116      1.43920      .   S
    C123   H44       1.08579      .   S
    C123   C121      1.42014      .   S
    C124   H45       1.08568      .   S
    C124   C122      1.42014      .   S
    C115   C117      1.41857      .   S
    C115   C119      1.41939      .   S
    C116   C118      1.41849      .   S
    C116   C120      1.41938      .   S
    C108   C118      1.38801      .   S
    C107   C117      1.38800      .   S
    C121   C119      1.38672      .   S
    C122   C120      1.38672      .   S
    C118   H41       1.08980      .   S
    C117   H40       1.08981      .   S
    C119   H42       1.09017      .   S
    C120   H43       1.09018      .   S
