# CIF file generated by openbabel 2.4.90, see http://openbabel.sf.net
data_I
_chemical_name_common ''
_cell_length_a 20.781
_cell_length_b 12.145
_cell_length_c 12.144
_cell_angle_alpha 96.958
_cell_angle_beta 105.259
_cell_angle_gamma 74.891
_space_group_name_H-M_alt 'P 1'
_space_group_name_Hall 'P 1'
loop_
    _symmetry_equiv_pos_as_xyz
    x,y,z
loop_
    _atom_site_label
    _atom_site_type_symbol
    _atom_site_fract_x
    _atom_site_fract_y
    _atom_site_fract_z
    _atom_site_occupancy
    C0      C    0.08773   0.10805   0.87812   1.000
    C1      C    0.58773   0.10804   0.87815   1.000
    C2      C    0.02769   0.10825   0.24219   1.000
    C3      C    0.52768   0.10823   0.24223   1.000
    C4      C    0.16231   0.87769   0.10823   1.000
    C5      C    0.66230   0.87767   0.10823   1.000
    C6      C    0.22248   0.24182   0.10800   1.000
    C7      C    0.72247   0.24181   0.10875   1.000
    C8      C    0.41227   0.89199   0.12190   1.000
    C9      C    0.91227   0.89198   0.12195   1.000
    C10     C    0.47232   0.89180   0.75783   1.000
    C11     C    0.97231   0.89179   0.75789   1.000
    C12     C    0.33770   0.12236   0.89180   1.000
    C13     C    0.83769   0.12235   0.89183   1.000
    C14     C    0.27752   0.75823   0.89129   1.000
    C15     C    0.77752   0.75821   0.89138   1.000
