# CIF file generated by openbabel 2.4.90, see http://openbabel.sf.net
data_I
_chemical_name_common ''
_cell_length_a 20.781
_cell_length_b 12.145
_cell_length_c 12.144
_cell_angle_alpha 96.958
_cell_angle_beta 105.259
_cell_angle_gamma 74.891
_space_group_name_H-M_alt 'P 1'
_space_group_name_Hall 'P 1'
loop_
    _symmetry_equiv_pos_as_xyz
    x,y,z
loop_
    _atom_site_label
    _atom_site_type_symbol
    _atom_site_fract_x
    _atom_site_fract_y
    _atom_site_fract_z
    _atom_site_occupancy
    N0      N    0.97819   0.15140   0.54997   1.000
    N1      N    0.72817   0.45005   0.84854   1.000
    N2      N    0.22818   0.45007   0.84851   1.000
    N3      N    0.77181   0.54996   0.15151   1.000
    N4      N    0.49079   0.15874   0.67506   1.000
    N5      N    0.52180   0.84863   0.45004   1.000
    N6      N    0.02180   0.84863   0.45009   1.000
    N7      N    0.27183   0.54998   0.15146   1.000
    Zr8     Zr   0.98250   0.00220   0.01315   1.000
    O9      O    0.87693   0.15850   0.93810   1.000
    O10     O    0.74294   0.93416   0.79521   1.000
    O11     O    0.98955   0.06807   0.21793   1.000
    O12     O    0.23056   0.93268   0.16387   1.000
    O13     O    0.12693   0.15851   0.93809   1.000
    O14     O    0.10557   0.84372   0.07506   1.000
    O15     O    0.99294   0.93416   0.79525   1.000
    O16     O    0.11798   0.21240   0.07356   1.000
    O17     O    0.76619   0.05930   0.22055   1.000
    O18     O    0.20674   0.07538   0.18364   1.000
    O19     O    0.86797   0.21239   0.07367   1.000
    O20     O    0.98056   0.93267   0.16389   1.000
    O21     O    0.85556   0.84372   0.07507   1.000
    O22     O    0.00194   0.06955   0.84928   1.000
    O23     O    0.75509   0.07138   0.88057   1.000
    O24     O    0.86452   0.78982   0.93952   1.000
    O25     O    0.11452   0.78983   0.93950   1.000
loop_
    _geom_bond_atom_site_label_1
    _geom_bond_atom_site_label_2
    _geom_bond_distance
    _geom_bond_site_symmetry_2
    _ccdc_geom_bond_type
    Zr8    O9        2.53822  1_554   S
    N1     O9        4.09077      .   S
    Zr8    O10       5.21054  1_544   S
    N5     O10       5.57338      .   S
    Zr8    O11       2.49661      .   S
    N0     O11       4.08983      .   S
    Zr8    O12       4.87601  1_645   S
    N5     O12       6.02643      .   S
    Zr8    O13       4.27468  1_654   S
    N2     O13       4.91647      .   S
    Zr8    O14       2.75375  1_645   S
    N7     O14       4.26781      .   S
    Zr8    O15       2.72235  1_544   S
    N6     O15       4.35335  1_455   S
    Zr8    O16       4.14578  1_655   S
    N7     O16       5.67691      .   S
    Zr8    O17       5.56241      .   S
    N4     O17       8.72287      .   S
    Zr8    O18       4.84000  1_655   S
    N4     O18       7.38878      .   S
    Zr8    O19       3.16540      .   S
    N3     O19       4.18087      .   S
    Zr8    O20       2.12060  1_545   S
    N6     O20       3.56255  1_455   S
    Zr8    O21       3.90772  1_545   S
    N3     O21       4.63770      .   S
    Zr8    O22       2.40460  1_654   S
    N0     O22       3.75764  1_655   S
    Zr8    O23       4.45919  1_554   S
    N4     O23       5.28286      .   S
    Zr8    O24       3.87914  1_544   S
    N1     O24       5.44241      .   S
    Zr8    O25       3.46755  1_644   S
    N2     O25       4.36060      .   S
