# CIF file generated by openbabel 2.4.90, see http://openbabel.sf.net
data_I
_chemical_name_common ''
_cell_length_a 20.781
_cell_length_b 12.145
_cell_length_c 12.144
_cell_angle_alpha 96.958
_cell_angle_beta 105.259
_cell_angle_gamma 74.891
_space_group_name_H-M_alt 'P 1'
_space_group_name_Hall 'P 1'
loop_
    _symmetry_equiv_pos_as_xyz
    x,y,z
loop_
    _atom_site_label
    _atom_site_type_symbol
    _atom_site_fract_x
    _atom_site_fract_y
    _atom_site_fract_z
    _atom_site_occupancy
    C0      C    0.12515   0.11696   0.11798   1.000
    C1      C    0.62515   0.11694   0.11806   1.000
    C2      C    0.37485   0.88310   0.88205   1.000
    C3      C    0.87486   0.88308   0.88217   1.000
    C4      C    0.00000   0.00001   0.90000   1.000
    C5      C    0.50000   0.00001   0.40000   1.000
    C6      C    0.25000   0.00000   0.99999   1.000
    C7      C    0.74999   0.00000   0.10000   1.000
    C8      C    0.45005   0.19140   0.82902   1.000
    C9      C    0.95005   0.19139   0.82898   1.000
    C10     C    0.36958   0.21815   0.63902   1.000
    C11     C    0.86958   0.21813   0.63897   1.000
    C12     C    0.12239   0.08992   0.67532   1.000
    C13     C    0.62238   0.08991   0.67534   1.000
    C14     C    0.10249   0.10121   0.46299   1.000
    C15     C    0.60247   0.10119   0.46301   1.000
    C16     C    0.39652   0.14112   0.25514   1.000
    C17     C    0.89653   0.14110   0.25511   1.000
    C18     C    0.34957   0.19066   0.42691   1.000
    C19     C    0.84958   0.19064   0.42687   1.000
    C20     C    0.29996   0.82909   0.19124   1.000
    C21     C    0.79994   0.82908   0.19128   1.000
    C22     C    0.38045   0.63949   0.21801   1.000
    C23     C    0.88044   0.63948   0.21808   1.000
    C24     C    0.12758   0.67466   0.09005   1.000
    C25     C    0.62756   0.67465   0.09007   1.000
    C26     C    0.14758   0.46229   0.10149   1.000
    C27     C    0.64757   0.46227   0.10153   1.000
    C28     C    0.35351   0.25558   0.14135   1.000
    C29     C    0.85349   0.25557   0.14139   1.000
    C30     C    0.40042   0.42761   0.19065   1.000
    C31     C    0.90041   0.42760   0.19071   1.000
    C32     C    0.04995   0.80865   0.17109   1.000
    C33     C    0.54994   0.80864   0.17103   1.000
    C34     C    0.13042   0.78190   0.36110   1.000
    C35     C    0.63042   0.78189   0.36103   1.000
    C36     C    0.37761   0.91013   0.32470   1.000
    C37     C    0.87760   0.91011   0.32473   1.000
    C38     C    0.39751   0.89884   0.53704   1.000
    C39     C    0.89750   0.89881   0.53708   1.000
    C40     C    0.10345   0.85895   0.74495   1.000
    C41     C    0.60347   0.85891   0.74490   1.000
    C42     C    0.15041   0.80941   0.57319   1.000
    C43     C    0.65042   0.80938   0.57314   1.000
    C44     C    0.20005   0.17096   0.80870   1.000
    C45     C    0.70004   0.17094   0.80879   1.000
    C46     C    0.11956   0.36055   0.78195   1.000
    C47     C    0.61955   0.36054   0.78200   1.000
    C48     C    0.37243   0.32539   0.90995   1.000
    C49     C    0.87242   0.32537   0.90990   1.000
    C50     C    0.35243   0.53776   0.89850   1.000
    C51     C    0.85242   0.53775   0.89855   1.000
    C52     C    0.14650   0.74446   0.85864   1.000
    C53     C    0.64649   0.74445   0.85860   1.000
    C54     C    0.09959   0.57243   0.80931   1.000
    C55     C    0.59957   0.57242   0.80936   1.000
    C56     C    0.08773   0.10805   0.87812   1.000
    C57     C    0.58773   0.10804   0.87815   1.000
    C58     C    0.04139   0.13671   0.76360   1.000
    C59     C    0.54139   0.13670   0.76367   1.000
    C60     C    0.46950   0.17665   0.75253   1.000
    C61     C    0.96949   0.17664   0.75249   1.000
    C62     C    0.42486   0.19095   0.64660   1.000
    C63     C    0.92486   0.19095   0.64657   1.000
    C64     C    0.44957   0.16797   0.54587   1.000
    C65     C    0.94957   0.16798   0.54584   1.000
    C66     C    0.02259   0.13680   0.55653   1.000
    C67     C    0.52258   0.13679   0.55656   1.000
    C68     C    0.06722   0.12011   0.66690   1.000
    C69     C    0.56721   0.12010   0.66694   1.000
    C70     C    0.04737   0.11990   0.45597   1.000
    C71     C    0.54736   0.11989   0.45000   1.000
    C72     C    0.02769   0.10825   0.24219   1.000
    C73     C    0.52768   0.10823   0.24223   1.000
    C74     C    0.00237   0.12466   0.34873   1.000
    C75     C    0.50236   0.12466   0.34876   1.000
    C76     C    0.43069   0.14550   0.33940   1.000
    C77     C    0.93070   0.14549   0.33942   1.000
    C78     C    0.40490   0.17080   0.43520   1.000
    C79     C    0.90491   0.17079   0.43517   1.000
    C80     C    0.16231   0.87769   0.10823   1.000
    C81     C    0.66230   0.87767   0.10823   1.000
    C82     C    0.20860   0.76332   0.13669   1.000
    C83     C    0.70859   0.76331   0.13671   1.000
    C84     C    0.28052   0.75251   0.17655   1.000
    C85     C    0.78051   0.75250   0.17659   1.000
    C86     C    0.32516   0.64682   0.19086   1.000
    C87     C    0.82515   0.64681   0.19092   1.000
    C88     C    0.30044   0.54600   0.16797   1.000
    C89     C    0.80042   0.54599   0.16803   1.000
    C90     C    0.22742   0.55631   0.13687   1.000
    C91     C    0.72741   0.55630   0.13691   1.000
    C92     C    0.18277   0.66650   0.12017   1.000
    C93     C    0.68276   0.66648   0.12020   1.000
    C94     C    0.20268   0.45559   0.12011   1.000
    C95     C    0.70267   0.45558   0.12015   1.000
    C96     C    0.22248   0.24182   0.10800   1.000
    C97     C    0.72247   0.24181   0.10875   1.000
    C98     C    0.24769   0.34859   0.12493   1.000
    C99     C    0.74768   0.34858   0.12498   1.000
    C100    C    0.31933   0.33969   0.14560   1.000
    C101    C    0.81932   0.33968   0.14572   1.000
    C102    C    0.34511   0.43558   0.17086   1.000
    C103    C    0.84509   0.43557   0.17091   1.000
    C104    C    0.41227   0.89199   0.12190   1.000
    C105    C    0.91227   0.89198   0.12195   1.000
    C106    C    0.45860   0.86333   0.23638   1.000
    C107    C    0.95860   0.86333   0.23640   1.000
    C108    C    0.03050   0.82340   0.24758   1.000
    C109    C    0.53050   0.82339   0.24752   1.000
    C110    C    0.07513   0.80909   0.35350   1.000
    C111    C    0.57513   0.80908   0.35344   1.000
    C112    C    0.05042   0.83206   0.45420   1.000
    C113    C    0.55042   0.83206   0.45417   1.000
    C114    C    0.47741   0.86324   0.44349   1.000
    C115    C    0.97740   0.86324   0.44354   1.000
    C116    C    0.43278   0.87993   0.33310   1.000
    C117    C    0.93277   0.87992   0.33315   1.000
    C118    C    0.45263   0.88015   0.54405   1.000
    C119    C    0.95262   0.88013   0.54410   1.000
    C120    C    0.47232   0.89180   0.75783   1.000
    C121    C    0.97231   0.89179   0.75789   1.000
    C122    C    0.49763   0.87538   0.65120   1.000
    C123    C    0.99761   0.87537   0.65133   1.000
    C124    C    0.06928   0.85455   0.66065   1.000
    C125    C    0.56930   0.85453   0.66060   1.000
    C126    C    0.09508   0.82925   0.56489   1.000
    C127    C    0.59509   0.82923   0.56484   1.000
    C128    C    0.33770   0.12236   0.89180   1.000
    C129    C    0.83769   0.12235   0.89183   1.000
    C130    C    0.29141   0.23673   0.86331   1.000
    C131    C    0.79140   0.23671   0.86330   1.000
    C132    C    0.21949   0.24754   0.82343   1.000
    C133    C    0.71948   0.24752   0.82348   1.000
    C134    C    0.17485   0.35322   0.80911   1.000
    C135    C    0.67484   0.35321   0.80916   1.000
    C136    C    0.19957   0.45405   0.83200   1.000
    C137    C    0.69956   0.45403   0.83204   1.000
    C138    C    0.27259   0.44374   0.86311   1.000
    C139    C    0.77257   0.44372   0.86316   1.000
    C140    C    0.31724   0.33355   0.87982   1.000
    C141    C    0.81723   0.33354   0.87980   1.000
    C142    C    0.29733   0.54446   0.87988   1.000
    C143    C    0.79732   0.54444   0.87993   1.000
    C144    C    0.27752   0.75823   0.89129   1.000
    C145    C    0.77752   0.75821   0.89138   1.000
    C146    C    0.25231   0.65145   0.87506   1.000
    C147    C    0.75230   0.65144   0.87511   1.000
    C148    C    0.18067   0.66036   0.85431   1.000
    C149    C    0.68066   0.66034   0.85436   1.000
    C150    C    0.15490   0.56446   0.82912   1.000
    C151    C    0.65489   0.56445   0.82917   1.000
    C152    C    0.05855   0.11972   0.96376   1.000
    C153    C    0.55856   0.11970   0.96380   1.000
    C154    C    0.08834   0.12072   0.25169   1.000
    C155    C    0.58834   0.12070   0.25176   1.000
    C156    C    0.48663   0.08615   0.14870   1.000
    C157    C    0.98662   0.08618   0.14867   1.000
    C158    C    0.15161   0.07569   0.88880   1.000
    C159    C    0.65161   0.07566   0.88882   1.000
    C160    C    0.19161   0.96332   0.11998   1.000
    C161    C    0.69161   0.96331   0.12000   1.000
    C162    C    0.16200   0.25084   0.12156   1.000
    C163    C    0.66199   0.25083   0.12162   1.000
    C164    C    0.26350   0.14863   0.08640   1.000
    C165    C    0.76350   0.14860   0.08650   1.000
    C166    C    0.09838   0.88843   0.07599   1.000
    C167    C    0.59837   0.88842   0.07596   1.000
    C168    C    0.44145   0.88033   0.03626   1.000
    C169    C    0.94147   0.88031   0.03632   1.000
    C170    C    0.41166   0.87933   0.74833   1.000
    C171    C    0.91166   0.87930   0.74843   1.000
    C172    C    0.01338   0.91388   0.85130   1.000
    C173    C    0.51337   0.91390   0.85134   1.000
    C174    C    0.34839   0.92438   0.11121   1.000
    C175    C    0.84839   0.92435   0.11124   1.000
    C176    C    0.30839   0.03673   0.88002   1.000
    C177    C    0.80838   0.03671   0.88005   1.000
    C178    C    0.33801   0.74921   0.87846   1.000
    C179    C    0.83800   0.74920   0.87853   1.000
    C180    C    0.23650   0.85143   0.91356   1.000
    C181    C    0.73649   0.85141   0.91365   1.000
    C182    C    0.40162   0.11163   0.92411   1.000
    C183    C    0.90161   0.11160   0.92400   1.000
    O184    O    0.42686   0.88616   0.07908   1.000
    O185    O    0.40815   0.88172   0.95915   1.000
    O186    O    0.92687   0.88615   0.07913   1.000
    O187    O    0.90816   0.88170   0.95924   1.000
    O188    O    0.63034   0.88305   0.09210   1.000
    O189    O    0.13035   0.88306   0.09211   1.000
    O190    O    0.24299   0.19522   0.09720   1.000
    O191    O    0.25675   0.07431   0.04320   1.000
    O192    O    0.74298   0.19520   0.09762   1.000
    O193    O    0.75674   0.07430   0.09325   1.000
    O194    O    0.15517   0.67058   0.10511   1.000
    O195    O    0.65516   0.67056   0.10514   1.000
    O196    O    0.17513   0.45894   0.11080   1.000
    O197    O    0.67512   0.45892   0.11084   1.000
    O198    O    0.19224   0.24633   0.11478   1.000
    O199    O    0.23509   0.29521   0.11646   1.000
    O200    O    0.17696   0.92051   0.11411   1.000
    O201    O    0.18545   0.82051   0.12246   1.000
    O202    O    0.67695   0.92049   0.11411   1.000
    O203    O    0.68544   0.82049   0.12247   1.000
    O204    O    0.69223   0.24632   0.11518   1.000
    O205    O    0.73508   0.29519   0.11686   1.000
    O206    O    0.38033   0.90819   0.11655   1.000
    O207    O    0.29919   0.96219   0.05560   1.000
    O208    O    0.88033   0.90817   0.11660   1.000
    O209    O    0.79919   0.96218   0.10562   1.000
    O210    O    0.15838   0.04014   0.11898   1.000
    O211    O    0.14358   0.18390   0.11977   1.000
    O212    O    0.10675   0.11884   0.18484   1.000
    O213    O    0.09185   0.11834   0.04087   1.000
    O214    O    0.64357   0.18388   0.11984   1.000
    O215    O    0.60675   0.11882   0.18491   1.000
    O216    O    0.59186   0.11832   0.04093   1.000
    O217    O    0.72080   0.98166   0.11000   1.000
    O218    O    0.22519   0.40209   0.12252   1.000
    O219    O    0.21505   0.50595   0.12849   1.000
    O220    O    0.72517   0.40208   0.12256   1.000
    O221    O    0.71504   0.50594   0.12853   1.000
    O222    O    0.19568   0.71491   0.12843   1.000
    O223    O    0.20509   0.61141   0.12852   1.000
    O224    O    0.69567   0.71489   0.12845   1.000
    O225    O    0.70508   0.61139   0.12856   1.000
    O226    O    0.43543   0.87766   0.17914   1.000
    O227    O    0.93544   0.87766   0.17918   1.000
    O228    O    0.28351   0.34414   0.13526   1.000
    O229    O    0.78350   0.34413   0.13535   1.000
    O230    O    0.24456   0.75792   0.15662   1.000
    O231    O    0.74455   0.75790   0.15665   1.000
    O232    O    0.26393   0.55116   0.15242   1.000
    O233    O    0.76391   0.55114   0.15247   1.000
    O234    O    0.33642   0.29764   0.14348   1.000
    O235    O    0.83641   0.29763   0.14355   1.000
    O236    O    0.33222   0.38764   0.15823   1.000
    O237    O    0.83221   0.38763   0.15831   1.000
    O238    O    0.00715   0.09721   0.19543   1.000
    O239    O    0.50715   0.09719   0.19546   1.000
    O240    O    0.32277   0.49079   0.16942   1.000
    O241    O    0.31280   0.59641   0.17941   1.000
    O242    O    0.82276   0.49078   0.16947   1.000
    O243    O    0.81278   0.59640   0.17947   1.000
    O244    O    0.37276   0.43160   0.18075   1.000
    O245    O    0.87275   0.43159   0.18081   1.000
    O246    O    0.54022   0.81601   0.20928   1.000
    O247    O    0.04022   0.81602   0.20933   1.000
    O248    O    0.30284   0.69967   0.18371   1.000
    O249    O    0.29024   0.79080   0.18390   1.000
    O250    O    0.80283   0.69965   0.18375   1.000
    O251    O    0.79023   0.79079   0.18394   1.000
    O252    O    0.35280   0.64316   0.20443   1.000
    O253    O    0.85279   0.64315   0.20450   1.000
    O254    O    0.49455   0.84336   0.24195   1.000
    O255    O    0.44569   0.87163   0.28474   1.000
    O256    O    0.99455   0.84336   0.24199   1.000
    O257    O    0.94569   0.87163   0.28478   1.000
    O258    O    0.05801   0.11448   0.24694   1.000
    O259    O    0.01503   0.11645   0.29546   1.000
    O260    O    0.55801   0.11446   0.24699   1.000
    O261    O    0.51502   0.11644   0.29550   1.000
    O262    O    0.55282   0.81624   0.30048   1.000
    O263    O    0.05282   0.81624   0.30054   1.000
    O264    O    0.91362   0.14329   0.29727   1.000
    O265    O    0.41361   0.14331   0.29727   1.000
    O266    O    0.40519   0.89503   0.32890   1.000
    O267    O    0.90519   0.89502   0.32894   1.000
    O268    O    0.45509   0.87159   0.38830   1.000
    O269    O    0.95509   0.87158   0.38835   1.000
    O270    O    0.46653   0.13508   0.34408   1.000
    O271    O    0.41780   0.15815   0.38730   1.000
    O272    O    0.96654   0.13508   0.34408   1.000
    O273    O    0.91781   0.15814   0.38730   1.000
    O274    O    0.02487   0.12228   0.40235   1.000
    O275    O    0.52486   0.12227   0.39938   1.000
    O276    O    0.50118   0.06233   0.37438   1.000
    O277    O    0.60277   0.79549   0.35723   1.000
    O278    O    0.56278   0.82057   0.40381   1.000
    O279    O    0.10277   0.79549   0.35730   1.000
    O280    O    0.06278   0.82057   0.40385   1.000
    O281    O    0.87724   0.18071   0.43102   1.000
    O282    O    0.37724   0.18073   0.43106   1.000
    O283    O    0.92724   0.16938   0.49050   1.000
    O284    O    0.42723   0.16939   0.49053   1.000
    O285    O    0.51392   0.84765   0.44883   1.000
    O286    O    0.46502   0.87170   0.49377   1.000
    O287    O    0.01391   0.84765   0.44887   1.000
    O288    O    0.96501   0.87168   0.49382   1.000
    O289    O    0.57492   0.11054   0.45650   1.000
    O290    O    0.53497   0.12834   0.50328   1.000
    O291    O    0.57276   0.83065   0.50950   1.000
    O292    O    0.07275   0.83065   0.50955   1.000
    O293    O    0.07493   0.11056   0.45948   1.000
    O294    O    0.03498   0.12835   0.50625   1.000
    O295    O    0.42507   0.88949   0.54054   1.000
    O296    O    0.92506   0.88947   0.54059   1.000
    O297    O    0.47513   0.87776   0.59762   1.000
    O298    O    0.97511   0.87775   0.59771   1.000
    O299    O    0.98608   0.15239   0.55118   1.000
    O300    O    0.93722   0.17946   0.59620   1.000
    O301    O    0.48607   0.15238   0.55122   1.000
    O302    O    0.43721   0.17946   0.59623   1.000
    O303    O    0.04490   0.12846   0.61172   1.000
    O304    O    0.54490   0.12845   0.61175   1.000
    O305    O    0.62275   0.81931   0.56899   1.000
    O306    O    0.58219   0.84188   0.61272   1.000
    O307    O    0.12274   0.81933   0.56904   1.000
    O308    O    0.08218   0.84190   0.61277   1.000
    O309    O    0.89722   0.20454   0.64277   1.000
    O310    O    0.39722   0.20455   0.64281   1.000
    O311    O    0.94718   0.18379   0.69953   1.000
    O312    O    0.44718   0.18380   0.69956   1.000
    O313    O    0.53346   0.86496   0.65590   1.000
    O314    O    0.48497   0.88359   0.70452   1.000
    O315    O    0.03345   0.86496   0.65599   1.000
    O316    O    0.98496   0.88358   0.70461   1.000
    O317    O    0.58638   0.85672   0.70275   1.000
    O318    O    0.08637   0.85675   0.70280   1.000
    O319    O    0.09480   0.10502   0.67111   1.000
    O320    O    0.05431   0.12841   0.71525   1.000
    O321    O    0.59480   0.10501   0.67114   1.000
    O322    O    0.55430   0.12840   0.71531   1.000
    O323    O    0.44199   0.88557   0.75308   1.000
    O324    O    0.39326   0.88121   0.81519   1.000
    O325    O    0.94198   0.88555   0.75316   1.000
    O326    O    0.89326   0.88119   0.81530   1.000
    O327    O    0.00544   0.15667   0.75804   1.000
    O328    O    0.95977   0.18402   0.79073   1.000
    O329    O    0.50545   0.15667   0.75810   1.000
    O330    O    0.45977   0.18402   0.79077   1.000
    O331    O    0.49285   0.90285   0.80458   1.000
    O332    O    0.99285   0.90283   0.80459   1.000
    O333    O    0.06456   0.12238   0.82086   1.000
    O334    O    0.56456   0.12237   0.82091   1.000
    O335    O    0.14720   0.35689   0.79553   1.000
    O336    O    0.64719   0.35687   0.79558   1.000
    O337    O    0.20977   0.20925   0.81606   1.000
    O338    O    0.70976   0.20923   0.81613   1.000
    O339    O    0.19717   0.30038   0.81627   1.000
    O340    O    0.18721   0.40364   0.82055   1.000
    O341    O    0.69716   0.30037   0.81632   1.000
    O342    O    0.68720   0.40362   0.82060   1.000
    O343    O    0.12724   0.56845   0.81922   1.000
    O344    O    0.62723   0.56843   0.81926   1.000
    O345    O    0.25545   0.24213   0.84337   1.000
    O346    O    0.75544   0.24212   0.84339   1.000
    O347    O    0.17724   0.50926   0.83056   1.000
    O348    O    0.16779   0.61241   0.84172   1.000
    O349    O    0.67722   0.50924   0.83061   1.000
    O350    O    0.66778   0.61239   0.84176   1.000
    O351    O    0.23608   0.44889   0.84755   1.000
    O352    O    0.73607   0.44888   0.84760   1.000
    O353    O    0.00669   0.95694   0.87565   1.000
    O354    O    0.16359   0.70241   0.85648   1.000
    O355    O    0.21649   0.65591   0.86469   1.000
    O356    O    0.66357   0.70239   0.85648   1.000
    O357    O    0.71648   0.65589   0.86474   1.000
    O358    O    0.29491   0.38864   0.87146   1.000
    O359    O    0.28496   0.49410   0.87150   1.000
    O360    O    0.79490   0.38863   0.87148   1.000
    O361    O    0.78494   0.49408   0.87154   1.000
    O362    O    0.80431   0.28512   0.87155   1.000
    O363    O    0.81454   0.17953   0.87756   1.000
    O364    O    0.30432   0.28514   0.87157   1.000
    O365    O    0.31455   0.17954   0.87756   1.000
    O366    O    0.27482   0.59796   0.87747   1.000
    O367    O    0.26492   0.70484   0.88318   1.000
    O368    O    0.77481   0.59794   0.87752   1.000
    O369    O    0.76491   0.70482   0.88325   1.000
    O370    O    0.11967   0.09187   0.88346   1.000
    O371    O    0.07314   0.11389   0.92094   1.000
    O372    O    0.61967   0.09185   0.88348   1.000
    O373    O    0.57315   0.11387   0.92097   1.000
    O374    O    0.35643   0.81615   0.88025   1.000
    O375    O    0.30777   0.75372   0.88487   1.000
    O376    O    0.85643   0.81614   0.88035   1.000
    O377    O    0.80776   0.75370   0.88496   1.000
    O378    O    0.84482   0.32946   0.89485   1.000
    O379    O    0.34483   0.32947   0.89489   1.000
    O380    O    0.32488   0.54111   0.88919   1.000
    O381    O    0.82487   0.54109   0.88924   1.000
    O382    O    0.34162   0.95991   0.88104   1.000
    O383    O    0.32304   0.07955   0.88591   1.000
    O384    O    0.84162   0.95990   0.88111   1.000
    O385    O    0.82303   0.07953   0.88594   1.000
    O386    O    0.20081   0.03785   0.94440   1.000
    O387    O    0.25701   0.80483   0.90243   1.000
    O388    O    0.75701   0.80481   0.90251   1.000
    O389    O    0.36966   0.11700   0.90795   1.000
    O390    O    0.86965   0.11698   0.90791   1.000
    O391    O    0.24325   0.92572   0.95678   1.000
    O392    O    0.02928   0.05986   0.93188   1.000
    O393    O    0.22080   0.98166   0.05998   1.000
    O394    O    0.65838   0.04012   0.11903   1.000
    O395    O    0.27919   0.01837   0.94000   1.000
    O396    O    0.95081   0.05581   0.91200   1.000
loop_
    _geom_bond_atom_site_label_1
    _geom_bond_atom_site_label_2
    _geom_bond_distance
    _geom_bond_site_symmetry_2
    _ccdc_geom_bond_type
    C168   O184      0.65595      .   S
    C104   O184      0.65595      .   S
    C168   O185      1.00628  1_554   S
    C2     O185      1.00628      .   S
    C169   O186      0.65596      .   S
    C105   O186      0.65596      .   S
    C169   O187      1.00605  1_554   S
    C3     O187      1.00605      .   S
    C167   O188      0.62915      .   S
    C81    O188      0.62915      .   S
    C166   O189      0.62914      .   S
    C80    O189      0.62914      .   S
    C164   O190      0.63624      .   S
    C96    O190      0.63624      .   S
    C164   O191      1.01096      .   S
    C6     O191      1.01096  1_556   S
    C165   O192      0.63742      .   S
    C97    O192      0.63742      .   S
    C165   O193      0.96469      .   S
    C7     O193      0.96469      .   S
    C24    O194      0.54492      .   S
    C92    O194      0.54492      .   S
    C25    O195      0.54491      .   S
    C93    O195      0.54491      .   S
    C26    O196      0.54508      .   S
    C94    O196      0.54508      .   S
    C27    O197      0.54508      .   S
    C95    O197      0.54508      .   S
    C96    O198      0.64259      .   S
    C162   O198      0.64259      .   S
    C96    O199      0.74686      .   S
    C98    O199      0.74686      .   S
    C80    O200      0.65600      .   S
    C160   O200      0.65600      .   S
    C80    O201      0.74479      .   S
    C82    O201      0.74479      .   S
    C81    O202      0.65600      .   S
    C161   O202      0.65600      .   S
    C81    O203      0.74479      .   S
    C83    O203      0.74479      .   S
    C97    O204      0.64103      .   S
    C163   O204      0.64103      .   S
    C97    O205      0.74712      .   S
    C99    O205      0.74712      .   S
    C174   O206      0.62916      .   S
    C104   O206      0.62916      .   S
    C174   O207      1.08583      .   S
    C6     O207      1.08583  1_546   S
    C175   O208      0.62915      .   S
    C105   O208      0.62915      .   S
    C175   O209      0.99352      .   S
    C7     O209      0.99352  1_545   S
    C0     O210      1.00496      .   S
    C160   O210      1.00496  1_565   S
    C0     O211      0.98063      .   S
    C162   O211      0.98063      .   S
    C0     O212      0.97996      .   S
    C154   O212      0.97996      .   S
    C0     O213      1.00633      .   S
    C152   O213      1.00633  1_556   S
    C1     O214      0.98061      .   S
    C163   O214      0.98061      .   S
    C1     O215      0.97993      .   S
    C155   O215      0.97993      .   S
    C1     O216      1.00647      .   S
    C153   O216      1.00647  1_556   S
    C161   O217      0.74041      .   S
    C7     O217      0.74041  1_545   S
    C94    O218      0.69336      .   S
    C98    O218      0.69336      .   S
    C94    O219      0.70970      .   S
    C90    O219      0.70970      .   S
    C95    O220      0.69336      .   S
    C99    O220      0.69336      .   S
    C95    O221      0.70970      .   S
    C91    O221      0.70970      .   S
    C92    O222      0.69400      .   S
    C82    O222      0.69400      .   S
    C92    O223      0.70928      .   S
    C90    O223      0.70928      .   S
    C93    O224      0.69400      .   S
    C83    O224      0.69400      .   S
    C93    O225      0.70928      .   S
    C91    O225      0.70928      .   S
    C104   O226      0.74481      .   S
    C106   O226      0.74481      .   S
    C105   O227      0.74464      .   S
    C107   O227      0.74464      .   S
    C98    O228      0.71010      .   S
    C100   O228      0.71010      .   S
    C99    O229      0.71006      .   S
    C101   O229      0.71006      .   S
    C82    O230      0.71022      .   S
    C84    O230      0.71022      .   S
    C83    O231      0.71023      .   S
    C85    O231      0.71023      .   S
    C90    O232      0.71960      .   S
    C88    O232      0.71960      .   S
    C91    O233      0.71960      .   S
    C89    O233      0.71960      .   S
    C28    O234      0.54285      .   S
    C100   O234      0.54285      .   S
    C29    O235      0.54289      .   S
    C101   O235      0.54289      .   S
    C100   O236      0.68729      .   S
    C102   O236      0.68729      .   S
    C101   O237      0.68728      .   S
    C103   O237      0.68728      .   S
    C157   O238      0.63742  1_655   S
    C72    O238      0.63742      .   S
    C156   O239      0.63741      .   S
    C73    O239      0.63741      .   S
    C88    O240      0.70825      .   S
    C102   O240      0.70825      .   S
    C88    O241      0.70904      .   S
    C86    O241      0.70904      .   S
    C89    O242      0.70825      .   S
    C103   O242      0.70825      .   S
    C89    O243      0.70905      .   S
    C87    O243      0.70905      .   S
    C102   O244      0.54562      .   S
    C30    O244      0.54562      .   S
    C103   O245      0.54561      .   S
    C31    O245      0.54561      .   S
    C33    O246      0.54261      .   S
    C109   O246      0.54261      .   S
    C32    O247      0.54262      .   S
    C108   O247      0.54262      .   S
    C84    O248      0.68679      .   S
    C86    O248      0.68679      .   S
    C84    O249      0.54260      .   S
    C20    O249      0.54260      .   S
    C85    O250      0.68679      .   S
    C87    O250      0.68679      .   S
    C85    O251      0.54259      .   S
    C21    O251      0.54259      .   S
    C86    O252      0.54574      .   S
    C22    O252      0.54574      .   S
    C87    O253      0.54573      .   S
    C23    O253      0.54573      .   S
    C106   O254      0.71020      .   S
    C109   O254      0.71020      .   S
    C106   O255      0.69396      .   S
    C116   O255      0.69396      .   S
    C107   O256      0.71021      .   S
    C108   O256      0.71021  1_455   S
    C107   O257      0.69415      .   S
    C117   O257      0.69415      .   S
    C72    O258      0.64107      .   S
    C154   O258      0.64107      .   S
    C72    O259      0.74691      .   S
    C74    O259      0.74691      .   S
    C73    O260      0.64108      .   S
    C155   O260      0.64108      .   S
    C73    O261      0.74688      .   S
    C75    O261      0.74688      .   S
    C109   O262      0.68688      .   S
    C111   O262      0.68688      .   S
    C108   O263      0.68686      .   S
    C110   O263      0.68686      .   S
    C17    O264      0.54295      .   S
    C77    O264      0.54295      .   S
    C16    O265      0.54272      .   S
    C76    O265      0.54272      .   S
    C36    O266      0.54489      .   S
    C116   O266      0.54489      .   S
    C37    O267      0.54488      .   S
    C117   O267      0.54488      .   S
    C116   O268      0.70921      .   S
    C114   O268      0.70921      .   S
    C117   O269      0.70919      .   S
    C115   O269      0.70919      .   S
    C76    O270      0.71001      .   S
    C75    O270      0.71001      .   S
    C76    O271      0.68754      .   S
    C78    O271      0.68754      .   S
    C77    O272      0.71010      .   S
    C74    O272      0.71010  1_455   S
    C77    O273      0.68729      .   S
    C79    O273      0.68729      .   S
    C74    O274      0.69333      .   S
    C70    O274      0.69333      .   S
    C75    O275      0.66582      .   S
    C71    O275      0.66582      .   S
    C75    O276      0.86089      .   S
    C5     O276      0.86089      .   S
    C111   O277      0.54573      .   S
    C35    O277      0.54573      .   S
    C111   O278      0.70907      .   S
    C113   O278      0.70907      .   S
    C110   O279      0.54573      .   S
    C34    O279      0.54573      .   S
    C110   O280      0.70892      .   S
    C112   O280      0.70892      .   S
    C19    O281      0.54561      .   S
    C79    O281      0.54561      .   S
    C18    O282      0.54562      .   S
    C78    O282      0.54562      .   S
    C79    O283      0.70832      .   S
    C65    O283      0.70832      .   S
    C78    O284      0.70833      .   S
    C64    O284      0.70833      .   S
    C114   O285      0.71957      .   S
    C113   O285      0.71957      .   S
    C114   O286      0.70956      .   S
    C118   O286      0.70956      .   S
    C115   O287      0.71963  1_655   S
    C112   O287      0.71963      .   S
    C115   O288      0.70958      .   S
    C119   O288      0.70958      .   S
    C71    O289      0.53995      .   S
    C15    O289      0.53995      .   S
    C71    O290      0.74386      .   S
    C67    O290      0.74386      .   S
    C113   O291      0.70832      .   S
    C127   O291      0.70832      .   S
    C112   O292      0.70841      .   S
    C126   O292      0.70841      .   S
    C70    O293      0.54507      .   S
    C14    O293      0.54507      .   S
    C70    O294      0.70958      .   S
    C66    O294      0.70958      .   S
    C38    O295      0.54508      .   S
    C118   O295      0.54508      .   S
    C39    O296      0.54507      .   S
    C119   O296      0.54507      .   S
    C118   O297      0.69292      .   S
    C122   O297      0.69292      .   S
    C119   O298      0.69328      .   S
    C123   O298      0.69328      .   S
    C65    O299      0.71961      .   S
    C66    O299      0.71961  1_455   S
    C65    O300      0.70907      .   S
    C63    O300      0.70907      .   S
    C64    O301      0.71956      .   S
    C67    O301      0.71956      .   S
    C64    O302      0.70905      .   S
    C62    O302      0.70905      .   S
    C66    O303      0.70910      .   S
    C68    O303      0.70910      .   S
    C67    O304      0.70916      .   S
    C69    O304      0.70916      .   S
    C127   O305      0.54561      .   S
    C43    O305      0.54561      .   S
    C127   O306      0.68732      .   S
    C125   O306      0.68732      .   S
    C126   O307      0.54561      .   S
    C42    O307      0.54561      .   S
    C126   O308      0.68734      .   S
    C124   O308      0.68734      .   S
    C11    O309      0.54573      .   S
    C63    O309      0.54573      .   S
    C10    O310      0.54573      .   S
    C62    O310      0.54573      .   S
    C63    O311      0.68687      .   S
    C61    O311      0.68687      .   S
    C62    O312      0.68693      .   S
    C60    O312      0.68693      .   S
    C122   O313      0.70997      .   S
    C125   O313      0.70997      .   S
    C122   O314      0.74741      .   S
    C120   O314      0.74741      .   S
    C123   O315      0.71010  1_655   S
    C124   O315      0.71010      .   S
    C123   O316      0.74697      .   S
    C121   O316      0.74697      .   S
    C125   O317      0.54291      .   S
    C41    O317      0.54291      .   S
    C124   O318      0.54291      .   S
    C40    O318      0.54291      .   S
    C68    O319      0.54488      .   S
    C12    O319      0.54488      .   S
    C68    O320      0.69384      .   S
    C58    O320      0.69384      .   S
    C69    O321      0.54489      .   S
    C13    O321      0.54489      .   S
    C69    O322      0.69399      .   S
    C59    O322      0.69399      .   S
    C170   O323      0.64108      .   S
    C120   O323      0.64108      .   S
    C170   O324      0.98001      .   S
    C2     O324      0.98001      .   S
    C171   O325      0.64105      .   S
    C121   O325      0.64105      .   S
    C171   O326      0.98008      .   S
    C3     O326      0.98008      .   S
    C61    O327      0.71027  1_655   S
    C58    O327      0.71027      .   S
    C61    O328      0.54262      .   S
    C9     O328      0.54262      .   S
    C60    O329      0.71020      .   S
    C59    O329      0.71020      .   S
    C60    O330      0.54261      .   S
    C8     O330      0.54261      .   S
    C120   O331      0.63739      .   S
    C173   O331      0.63739      .   S
    C121   O332      0.63706      .   S
    C172   O332      0.63706  1_455   S
    C58    O333      0.74501      .   S
    C56    O333      0.74501      .   S
    C59    O334      0.74483      .   S
    C57    O334      0.74483      .   S
    C46    O335      0.54573      .   S
    C134   O335      0.54573      .   S
    C47    O336      0.54573      .   S
    C135   O336      0.54573      .   S
    C44    O337      0.54259      .   S
    C132   O337      0.54259      .   S
    C45    O338      0.54259      .   S
    C133   O338      0.54259      .   S
    C134   O339      0.68679      .   S
    C132   O339      0.68679      .   S
    C134   O340      0.70905      .   S
    C136   O340      0.70905      .   S
    C135   O341      0.68680      .   S
    C133   O341      0.68680      .   S
    C135   O342      0.70905      .   S
    C137   O342      0.70905      .   S
    C54    O343      0.54561      .   S
    C150   O343      0.54561      .   S
    C55    O344      0.54561      .   S
    C151   O344      0.54561      .   S
    C132   O345      0.71022      .   S
    C130   O345      0.71022      .   S
    C133   O346      0.71020      .   S
    C131   O346      0.71020      .   S
    C150   O347      0.70825      .   S
    C136   O347      0.70825      .   S
    C150   O348      0.68728      .   S
    C148   O348      0.68728      .   S
    C151   O349      0.70825      .   S
    C137   O349      0.70825      .   S
    C151   O350      0.68728      .   S
    C149   O350      0.68728      .   S
    C136   O351      0.71960      .   S
    C138   O351      0.71960      .   S
    C137   O352      0.71960      .   S
    C139   O352      0.71960      .   S
    C172   O353      0.57148      .   S
    C4     O353      0.57148  1_545   S
    C148   O354      0.54289      .   S
    C52    O354      0.54289      .   S
    C148   O355      0.71007      .   S
    C146   O355      0.71007      .   S
    C149   O356      0.54284      .   S
    C53    O356      0.54284      .   S
    C149   O357      0.71007      .   S
    C147   O357      0.71007      .   S
    C138   O358      0.70928      .   S
    C140   O358      0.70928      .   S
    C138   O359      0.70969      .   S
    C142   O359      0.70969      .   S
    C139   O360      0.70924      .   S
    C141   O360      0.70924      .   S
    C139   O361      0.70969      .   S
    C143   O361      0.70969      .   S
    C131   O362      0.69400      .   S
    C141   O362      0.69400      .   S
    C131   O363      0.74483      .   S
    C129   O363      0.74483      .   S
    C130   O364      0.69400      .   S
    C140   O364      0.69400      .   S
    C130   O365      0.74480      .   S
    C128   O365      0.74480      .   S
    C146   O366      0.69336      .   S
    C142   O366      0.69336      .   S
    C146   O367      0.74712      .   S
    C144   O367      0.74712      .   S
    C147   O368      0.69336      .   S
    C143   O368      0.69336      .   S
    C147   O369      0.74713      .   S
    C145   O369      0.74713      .   S
    C56    O370      0.62916      .   S
    C158   O370      0.62916      .   S
    C56    O371      0.65591      .   S
    C152   O371      0.65591      .   S
    C57    O372      0.62915      .   S
    C159   O372      0.62915      .   S
    C57    O373      0.65593      .   S
    C153   O373      0.65593      .   S
    C178   O374      0.98062      .   S
    C2     O374      0.98062      .   S
    C178   O375      0.64101      .   S
    C144   O375      0.64101      .   S
    C179   O376      0.98064      .   S
    C3     O376      0.98064      .   S
    C179   O377      0.64101      .   S
    C145   O377      0.64101      .   S
    C141   O378      0.54490      .   S
    C49    O378      0.54490      .   S
    C140   O379      0.54490      .   S
    C48    O379      0.54490      .   S
    C142   O380      0.54508      .   S
    C50    O380      0.54508      .   S
    C143   O381      0.54509      .   S
    C51    O381      0.54509      .   S
    C176   O382      1.00493  1_545   S
    C2     O382      1.00493      .   S
    C176   O383      0.65600      .   S
    C128   O383      0.65600      .   S
    C177   O384      1.00496  1_545   S
    C3     O384      1.00496      .   S
    C177   O385      0.65599      .   S
    C129   O385      0.65599      .   S
    C158   O386      1.08584      .   S
    C6     O386      1.08584      .   S
    C144   O387      0.63742      .   S
    C180   O387      0.63742      .   S
    C145   O388      0.63742      .   S
    C181   O388      0.63742      .   S
    C128   O389      0.62915      .   S
    C182   O389      0.62915      .   S
    C129   O390      0.62913      .   S
    C183   O390      0.62913      .   S
    C180   O391      1.01073      .   S
    C6     O391      1.01073  1_545   S
    C152   O392      1.04249      .   S
    C4     O392      1.04249      .   S
    C160   O393      1.13617      .   S
    C6     O393      1.13617  1_546   S
    C161   O394      1.00493  1_565   S
    C1     O394      1.00493      .   S
    C176   O395      1.13624      .   S
    C6     O395      1.13624      .   S
    C183   O396      1.10405      .   S
    C4     O396      1.10405  1_455   S
