# CIF file generated by openbabel 2.4.90, see http://openbabel.sf.net
data_I
_chemical_name_common ''
_cell_length_a 20.781
_cell_length_b 12.145
_cell_length_c 12.144
_cell_angle_alpha 96.958
_cell_angle_beta 105.259
_cell_angle_gamma 74.891
_space_group_name_H-M_alt 'P 1'
_space_group_name_Hall 'P 1'
loop_
    _symmetry_equiv_pos_as_xyz
    x,y,z
loop_
    _atom_site_label
    _atom_site_type_symbol
    _atom_site_fract_x
    _atom_site_fract_y
    _atom_site_fract_z
    _atom_site_occupancy
    Zr0     Zr   0.12515   0.11696   0.11798   1.000
    Zr1     Zr   0.62515   0.11694   0.11806   1.000
    Zr2     Zr   0.37485   0.88310   0.88205   1.000
    Zr3     Zr   0.87486   0.88308   0.88217   1.000
    Zr4     Zr   0.00000   0.00001   0.90000   1.000
    Zr5     Zr   0.50000   0.00001   0.40000   1.000
    Zr6     Zr   0.25000   0.00000   0.99999   1.000
    Zr7     Zr   0.74999   0.00000   0.10000   1.000
    Zr8     Zr   0.08773   0.10805   0.87812   1.000
    Zr9     Zr   0.58773   0.10804   0.87815   1.000
    Zr10    Zr   0.02769   0.10825   0.24219   1.000
    Zr11    Zr   0.52768   0.10823   0.24223   1.000
    Zr12    Zr   0.50236   0.12466   0.34876   1.000
    Zr13    Zr   0.16231   0.87769   0.10823   1.000
    Zr14    Zr   0.66230   0.87767   0.10823   1.000
    Zr15    Zr   0.22248   0.24182   0.10800   1.000
    Zr16    Zr   0.72247   0.24181   0.10875   1.000
    Zr17    Zr   0.41227   0.89199   0.12190   1.000
    Zr18    Zr   0.91227   0.89198   0.12195   1.000
    Zr19    Zr   0.47232   0.89180   0.75783   1.000
    Zr20    Zr   0.97231   0.89179   0.75789   1.000
    Zr21    Zr   0.33770   0.12236   0.89180   1.000
    Zr22    Zr   0.83769   0.12235   0.89183   1.000
    Zr23    Zr   0.27752   0.75823   0.89129   1.000
    Zr24    Zr   0.77752   0.75821   0.89138   1.000
    Zr25    Zr   0.05855   0.11972   0.96376   1.000
    Zr26    Zr   0.55856   0.11970   0.96380   1.000
    Zr27    Zr   0.08834   0.12072   0.25169   1.000
    Zr28    Zr   0.58834   0.12070   0.25176   1.000
    Zr29    Zr   0.48663   0.08615   0.14870   1.000
    Zr30    Zr   0.98662   0.08618   0.14867   1.000
    Zr31    Zr   0.15161   0.07569   0.88880   1.000
    Zr32    Zr   0.65161   0.07566   0.88882   1.000
    Zr33    Zr   0.19161   0.96332   0.11998   1.000
    Zr34    Zr   0.69161   0.96331   0.12000   1.000
    Zr35    Zr   0.16200   0.25084   0.12156   1.000
    Zr36    Zr   0.66199   0.25083   0.12162   1.000
    Zr37    Zr   0.26350   0.14863   0.08640   1.000
    Zr38    Zr   0.76350   0.14860   0.08650   1.000
    Zr39    Zr   0.09838   0.88843   0.07599   1.000
    Zr40    Zr   0.59837   0.88842   0.07596   1.000
    Zr41    Zr   0.44145   0.88033   0.03626   1.000
    Zr42    Zr   0.94147   0.88031   0.03632   1.000
    Zr43    Zr   0.41166   0.87933   0.74833   1.000
    Zr44    Zr   0.91166   0.87930   0.74843   1.000
    Zr45    Zr   0.01338   0.91388   0.85130   1.000
    Zr46    Zr   0.51337   0.91390   0.85134   1.000
    Zr47    Zr   0.34839   0.92438   0.11121   1.000
    Zr48    Zr   0.84839   0.92435   0.11124   1.000
    Zr49    Zr   0.30839   0.03673   0.88002   1.000
    Zr50    Zr   0.80838   0.03671   0.88005   1.000
    Zr51    Zr   0.33801   0.74921   0.87846   1.000
    Zr52    Zr   0.83800   0.74920   0.87853   1.000
    Zr53    Zr   0.23650   0.85143   0.91356   1.000
    Zr54    Zr   0.73649   0.85141   0.91365   1.000
    Zr55    Zr   0.40162   0.11163   0.92411   1.000
    Zr56    Zr   0.90161   0.11160   0.92400   1.000
    O57     O    0.42686   0.88616   0.07908   1.000
    O58     O    0.40815   0.88172   0.95915   1.000
    O59     O    0.92687   0.88615   0.07913   1.000
    O60     O    0.90816   0.88170   0.95924   1.000
    O61     O    0.63034   0.88305   0.09210   1.000
    O62     O    0.13035   0.88306   0.09211   1.000
    O63     O    0.24299   0.19522   0.09720   1.000
    O64     O    0.25675   0.07431   0.04320   1.000
    O65     O    0.74298   0.19520   0.09762   1.000
    O66     O    0.75674   0.07430   0.09325   1.000
    O67     O    0.19224   0.24633   0.11478   1.000
    O68     O    0.17696   0.92051   0.11411   1.000
    O69     O    0.67695   0.92049   0.11411   1.000
    O70     O    0.69223   0.24632   0.11518   1.000
    O71     O    0.38033   0.90819   0.11655   1.000
    O72     O    0.29919   0.96219   0.05560   1.000
    O73     O    0.88033   0.90817   0.11660   1.000
    O74     O    0.79919   0.96218   0.10562   1.000
    O75     O    0.15838   0.04014   0.11898   1.000
    O76     O    0.14358   0.18390   0.11977   1.000
    O77     O    0.10675   0.11884   0.18484   1.000
    O78     O    0.09185   0.11834   0.04087   1.000
    O79     O    0.64357   0.18388   0.11984   1.000
    O80     O    0.60675   0.11882   0.18491   1.000
    O81     O    0.59186   0.11832   0.04093   1.000
    O82     O    0.72080   0.98166   0.11000   1.000
    O83     O    0.00715   0.09721   0.19543   1.000
    O84     O    0.50715   0.09719   0.19546   1.000
    O85     O    0.05801   0.11448   0.24694   1.000
    O86     O    0.55801   0.11446   0.24699   1.000
    O87     O    0.51502   0.11644   0.29550   1.000
    O88     O    0.50118   0.06233   0.37438   1.000
    O89     O    0.44199   0.88557   0.75308   1.000
    O90     O    0.39326   0.88121   0.81519   1.000
    O91     O    0.94198   0.88555   0.75316   1.000
    O92     O    0.89326   0.88119   0.81530   1.000
    O93     O    0.49285   0.90285   0.80458   1.000
    O94     O    0.99285   0.90283   0.80459   1.000
    O95     O    0.00669   0.95694   0.87565   1.000
    O96     O    0.11967   0.09187   0.88346   1.000
    O97     O    0.07314   0.11389   0.92094   1.000
    O98     O    0.61967   0.09185   0.88348   1.000
    O99     O    0.57315   0.11387   0.92097   1.000
    O100    O    0.35643   0.81615   0.88025   1.000
    O101    O    0.30777   0.75372   0.88487   1.000
    O102    O    0.85643   0.81614   0.88035   1.000
    O103    O    0.80776   0.75370   0.88496   1.000
    O104    O    0.34162   0.95991   0.88104   1.000
    O105    O    0.32304   0.07955   0.88591   1.000
    O106    O    0.84162   0.95990   0.88111   1.000
    O107    O    0.82303   0.07953   0.88594   1.000
    O108    O    0.20081   0.03785   0.94440   1.000
    O109    O    0.25701   0.80483   0.90243   1.000
    O110    O    0.75701   0.80481   0.90251   1.000
    O111    O    0.36966   0.11700   0.90795   1.000
    O112    O    0.86965   0.11698   0.90791   1.000
    O113    O    0.24325   0.92572   0.95678   1.000
    O114    O    0.02928   0.05986   0.93188   1.000
    O115    O    0.22080   0.98166   0.05998   1.000
    O116    O    0.65838   0.04012   0.11903   1.000
    O117    O    0.27919   0.01837   0.94000   1.000
    O118    O    0.95081   0.05581   0.91200   1.000
    N119    N    0.97819   0.15140   0.54997   1.000
    O120    O    0.99661   0.13393   0.42271   1.000
    O121    O    0.02138   0.13689   0.68541   1.000
    N122    N    0.72817   0.45005   0.84854   1.000
    O123    O    0.74654   0.57744   0.86589   1.000
    O124    O    0.77136   0.31479   0.86305   1.000
    N125    N    0.22818   0.45007   0.84851   1.000
    O126    O    0.24655   0.57746   0.86584   1.000
    O127    O    0.27137   0.31481   0.86303   1.000
    N128    N    0.77181   0.54996   0.15151   1.000
    O129    O    0.75345   0.42258   0.13419   1.000
    O130    O    0.72863   0.68523   0.13699   1.000
    N131    N    0.49079   0.15874   0.67506   1.000
    O132    O    0.52768   0.14055   0.74799   1.000
    O133    O    0.54989   0.11641   0.42794   1.000
    O134    O    0.43097   0.14855   0.35412   1.000
    N135    N    0.52180   0.84863   0.45004   1.000
    O136    O    0.47862   0.86315   0.31459   1.000
    O137    O    0.50339   0.86611   0.57728   1.000
    N138    N    0.02180   0.84863   0.45009   1.000
    O139    O    0.97862   0.86315   0.31463   1.000
    O140    O    0.00338   0.86611   0.57735   1.000
    N141    N    0.27183   0.54998   0.15146   1.000
    O142    O    0.25346   0.42259   0.13396   1.000
    O143    O    0.22864   0.68524   0.13696   1.000
loop_
    _geom_bond_atom_site_label_1
    _geom_bond_atom_site_label_2
    _geom_bond_distance
    _geom_bond_site_symmetry_2
    _ccdc_geom_bond_type
    Zr41   O57       0.65595      .   S
    Zr17   O57       0.65595      .   S
    Zr41   O58       1.00628  1_554   S
    Zr2    O58       1.00628      .   S
    Zr42   O59       0.65596      .   S
    Zr18   O59       0.65596      .   S
    Zr42   O60       1.00605  1_554   S
    Zr3    O60       1.00605      .   S
    Zr40   O61       0.62915      .   S
    Zr14   O61       0.62915      .   S
    Zr39   O62       0.62914      .   S
    Zr13   O62       0.62914      .   S
    Zr37   O63       0.63624      .   S
    Zr15   O63       0.63624      .   S
    Zr37   O64       1.01096      .   S
    Zr6    O64       1.01096  1_556   S
    Zr38   O65       0.63742      .   S
    Zr16   O65       0.63742      .   S
    Zr38   O66       0.96469      .   S
    Zr7    O66       0.96469      .   S
    Zr15   O67       0.64259      .   S
    Zr35   O67       0.64259      .   S
    Zr13   O68       0.65600      .   S
    Zr33   O68       0.65600      .   S
    Zr14   O69       0.65600      .   S
    Zr34   O69       0.65600      .   S
    Zr16   O70       0.64103      .   S
    Zr36   O70       0.64103      .   S
    Zr47   O71       0.62916      .   S
    Zr17   O71       0.62916      .   S
    Zr47   O72       1.08583      .   S
    Zr6    O72       1.08583  1_546   S
    Zr48   O73       0.62915      .   S
    Zr18   O73       0.62915      .   S
    Zr48   O74       0.99352      .   S
    Zr7    O74       0.99352  1_545   S
    Zr0    O75       1.00496      .   S
    Zr33   O75       1.00496  1_565   S
    Zr0    O76       0.98063      .   S
    Zr35   O76       0.98063      .   S
    Zr0    O77       0.97996      .   S
    Zr27   O77       0.97996      .   S
    Zr0    O78       1.00633      .   S
    Zr25   O78       1.00633  1_556   S
    Zr1    O79       0.98061      .   S
    Zr36   O79       0.98061      .   S
    Zr1    O80       0.97993      .   S
    Zr28   O80       0.97993      .   S
    Zr1    O81       1.00647      .   S
    Zr26   O81       1.00647  1_556   S
    Zr34   O82       0.74041      .   S
    Zr7    O82       0.74041  1_545   S
    Zr30   O83       0.63742  1_655   S
    Zr10   O83       0.63742      .   S
    Zr29   O84       0.63741      .   S
    Zr11   O84       0.63741      .   S
    Zr10   O85       0.64107      .   S
    Zr27   O85       0.64107      .   S
    Zr11   O86       0.64108      .   S
    Zr28   O86       0.64108      .   S
    Zr11   O87       0.74688      .   S
    Zr12   O87       0.74688      .   S
    Zr12   O88       0.86089      .   S
    Zr5    O88       0.86089      .   S
    Zr43   O89       0.64108      .   S
    Zr19   O89       0.64108      .   S
    Zr43   O90       0.98001      .   S
    Zr2    O90       0.98001      .   S
    Zr44   O91       0.64105      .   S
    Zr20   O91       0.64105      .   S
    Zr44   O92       0.98008      .   S
    Zr3    O92       0.98008      .   S
    Zr19   O93       0.63739      .   S
    Zr46   O93       0.63739      .   S
    Zr20   O94       0.63706      .   S
    Zr45   O94       0.63706  1_455   S
    Zr45   O95       0.57148      .   S
    Zr4    O95       0.57148  1_545   S
    Zr8    O96       0.62916      .   S
    Zr31   O96       0.62916      .   S
    Zr8    O97       0.65591      .   S
    Zr25   O97       0.65591      .   S
    Zr9    O98       0.62915      .   S
    Zr32   O98       0.62915      .   S
    Zr9    O99       0.65593      .   S
    Zr26   O99       0.65593      .   S
    Zr51   O100      0.98062      .   S
    Zr2    O100      0.98062      .   S
    Zr51   O101      0.64101      .   S
    Zr23   O101      0.64101      .   S
    Zr52   O102      0.98064      .   S
    Zr3    O102      0.98064      .   S
    Zr52   O103      0.64101      .   S
    Zr24   O103      0.64101      .   S
    Zr49   O104      1.00493  1_545   S
    Zr2    O104      1.00493      .   S
    Zr49   O105      0.65600      .   S
    Zr21   O105      0.65600      .   S
    Zr50   O106      1.00496  1_545   S
    Zr3    O106      1.00496      .   S
    Zr50   O107      0.65599      .   S
    Zr22   O107      0.65599      .   S
    Zr31   O108      1.08584      .   S
    Zr6    O108      1.08584      .   S
    Zr23   O109      0.63742      .   S
    Zr53   O109      0.63742      .   S
    Zr24   O110      0.63742      .   S
    Zr54   O110      0.63742      .   S
    Zr21   O111      0.62915      .   S
    Zr55   O111      0.62915      .   S
    Zr22   O112      0.62913      .   S
    Zr56   O112      0.62913      .   S
    Zr53   O113      1.01073      .   S
    Zr6    O113      1.01073  1_545   S
    Zr25   O114      1.04249      .   S
    Zr4    O114      1.04249      .   S
    Zr33   O115      1.13617      .   S
    Zr6    O115      1.13617  1_546   S
    Zr34   O116      1.00493  1_565   S
    Zr1    O116      1.00493      .   S
    Zr49   O117      1.13624      .   S
    Zr6    O117      1.13624      .   S
    Zr56   O118      1.10405      .   S
    Zr4    O118      1.10405  1_455   S
    N119   O120      1.66410      .   S
    Zr10   O120      2.40725  1_455   S
    N119   O121      1.65916  1_655   S
    Zr8    O121      2.39770      .   S
    N122   O123      1.66438      .   S
    Zr24   O123      2.40780      .   S
    N122   O124      1.65935      .   S
    Zr22   O124      2.39783      .   S
    N125   O126      1.66439      .   S
    Zr23   O126      2.40780      .   S
    N125   O127      1.65936      .   S
    Zr21   O127      2.39782      .   S
    N128   O129      1.66439      .   S
    Zr16   O129      2.40780      .   S
    N128   O130      1.65936      .   S
    Zr14   O130      2.39782      .   S
    N131   O132      1.01115      .   S
    Zr9    O132      1.75159      .   S
    N131   O133      3.46635      .   S
    Zr12   O133      1.17562      .   S
    N131   O134      3.76353      .   S
    Zr12   O134      1.45294      .   S
    N135   O136      1.65919      .   S
    Zr17   O136      2.39753      .   S
    N135   O137      1.66389      .   S
    Zr19   O137      2.40756      .   S
    N138   O139      1.65926  1_455   S
    Zr18   O139      2.39741      .   S
    N138   O140      1.66416      .   S
    Zr20   O140      2.40739  1_655   S
    N141   O142      1.66429      .   S
    Zr15   O142      2.40748      .   S
    N141   O143      1.65936      .   S
    Zr13   O143      2.39781      .   S
