# CIF file generated by openbabel 2.4.90, see http://openbabel.sf.net
data_I
_chemical_name_common ''
_cell_length_a 18.42
_cell_length_b 18.428
_cell_length_c 18.43
_cell_angle_alpha 60.169
_cell_angle_beta 60.182
_cell_angle_gamma 60.18
_space_group_name_H-M_alt 'P 1'
_space_group_name_Hall 'P 1'
loop_
    _symmetry_equiv_pos_as_xyz
    x,y,z
loop_
    _atom_site_label
    _atom_site_type_symbol
    _atom_site_fract_x
    _atom_site_fract_y
    _atom_site_fract_z
    _atom_site_occupancy
    N0      N    0.00001   0.50001   0.49998   1.000
    N1      N    0.50001   0.00001   0.99998   1.000
    N2      N    0.00001   0.00001   0.49998   1.000
    N3      N    0.50001   0.50001   0.99997   1.000
    N4      N    0.50001   0.00001   0.49998   1.000
    N5      N    0.00001   0.50001   0.99998   1.000
    Zr6     Zr   0.75003   0.75004   0.74995   1.000
    Zr7     Zr   0.24999   0.24998   0.24998   1.000
    O8      O    0.66751   0.83260   0.83253   1.000
    O9      O    0.33251   0.16742   0.16741   1.000
    O10     O    0.83257   0.83258   0.66748   1.000
    O11     O    0.16744   0.16743   0.33247   1.000
    O12     O    0.66746   0.66747   0.83242   1.000
    O13     O    0.33256   0.33254   0.16750   1.000
    O14     O    0.66746   0.83251   0.66741   1.000
    O15     O    0.33256   0.16751   0.33254   1.000
    O16     O    0.83252   0.66745   0.66739   1.000
    O17     O    0.83257   0.66754   0.83251   1.000
    O18     O    0.16750   0.33256   0.33255   1.000
    O19     O    0.16744   0.33247   0.16743   1.000
loop_
    _geom_bond_atom_site_label_1
    _geom_bond_atom_site_label_2
    _geom_bond_distance
    _geom_bond_site_symmetry_2
    _ccdc_geom_bond_type
    N1     O8        4.36996  1_545   S
    Zr6    O8        2.15509      .   S
    N1     O9        4.36981  1_556   S
    Zr7    O9        2.15488      .   S
    N2     O10       4.36811  1_445   S
    Zr6    O10       2.15356      .   S
    N2     O11       4.36811      .   S
    Zr7    O11       2.15357      .   S
    N3     O12       4.36880      .   S
    Zr6    O12       2.15411      .   S
    N3     O13       4.36880  1_556   S
    Zr7    O13       2.15411      .   S
    N4     O14       4.36847  1_545   S
    Zr6    O14       2.15384      .   S
    N4     O15       4.36865      .   S
    Zr7    O15       2.15407      .   S
    Zr6    O16       2.15528      .   S
    N0     O16       4.36987  1_455   S
    Zr6    O17       2.15378      .   S
    N5     O17       4.36878  1_455   S
    N0     O18       4.37028      .   S
    Zr7    O18       2.15537      .   S
    N5     O19       4.36848  1_556   S
    Zr7    O19       2.15372      .   S
