# CIF file generated by openbabel 2.4.90, see http://openbabel.sf.net
data_I
_chemical_name_common ''
_cell_length_a 18.42
_cell_length_b 18.428
_cell_length_c 18.43
_cell_angle_alpha 60.169
_cell_angle_beta 60.182
_cell_angle_gamma 60.18
_space_group_name_H-M_alt 'P 1'
_space_group_name_Hall 'P 1'
loop_
    _symmetry_equiv_pos_as_xyz
    x,y,z
loop_
    _atom_site_label
    _atom_site_type_symbol
    _atom_site_fract_x
    _atom_site_fract_y
    _atom_site_fract_z
    _atom_site_occupancy
    N0      N    0.00001   0.50001   0.49998   1.000
    N1      N    0.50001   0.00001   0.99998   1.000
    N2      N    0.00001   0.00001   0.49998   1.000
    N3      N    0.50001   0.50001   0.99997   1.000
    N4      N    0.50001   0.00001   0.49998   1.000
    N5      N    0.00001   0.50001   0.99998   1.000
    Zr6     Zr   0.75003   0.75004   0.74995   1.000
    O7      O    0.68603   0.83248   0.64885   1.000
    O8      O    0.83252   0.68601   0.64884   1.000
    O9      O    0.83255   0.83251   0.64889   1.000
    O10     O    0.68603   0.64890   0.83238   1.000
    O11     O    0.83255   0.64895   0.83242   1.000
    O12     O    0.83252   0.64890   0.68593   1.000
    O13     O    0.68610   0.83265   0.83258   1.000
    O14     O    0.83260   0.68613   0.83260   1.000
    O15     O    0.83260   0.83266   0.68607   1.000
    O16     O    0.64888   0.68604   0.83247   1.000
    O17     O    0.64888   0.83253   0.68598   1.000
    O18     O    0.64892   0.83255   0.83249   1.000
    Zr19    Zr   0.24999   0.24998   0.24998   1.000
    O20     O    0.31399   0.35111   0.16752   1.000
    O21     O    0.16747   0.35106   0.16750   1.000
    O22     O    0.16749   0.35112   0.31399   1.000
    O23     O    0.16742   0.31388   0.16735   1.000
    O24     O    0.16741   0.16736   0.31388   1.000
    O25     O    0.31392   0.16737   0.16736   1.000
    O26     O    0.35110   0.16747   0.16746   1.000
    O27     O    0.35114   0.31398   0.16748   1.000
    O28     O    0.35113   0.16748   0.31397   1.000
    O29     O    0.16750   0.31400   0.35111   1.000
    O30     O    0.31399   0.16753   0.35110   1.000
    O31     O    0.16747   0.16751   0.35105   1.000
loop_
    _geom_bond_atom_site_label_1
    _geom_bond_atom_site_label_2
    _geom_bond_distance
    _geom_bond_site_symmetry_2
    _ccdc_geom_bond_type
    Zr6    O7        2.18100      .   S
    N4     O7        4.38190  1_545   S
    Zr6    O8        2.18222      .   S
    N0     O8        4.38345  1_455   S
    Zr6    O9        2.18062      .   S
    N2     O9        4.38147  1_445   S
    Zr6    O10       2.18127      .   S
    N3     O10       4.38223      .   S
    Zr6    O11       2.18071      .   S
    N5     O11       4.38231  1_455   S
    Zr6    O12       2.18252      .   S
    N0     O12       4.38313  1_455   S
    Zr6    O13       2.18245      .   S
    N1     O13       4.38350  1_545   S
    Zr6    O14       2.18133      .   S
    N5     O14       4.38224  1_455   S
    Zr6    O15       2.18097      .   S
    N2     O15       4.38173  1_445   S
    Zr6    O16       2.18125      .   S
    N3     O16       4.38227      .   S
    Zr6    O17       2.18099      .   S
    N4     O17       4.38195  1_545   S
    Zr6    O18       2.18209      .   S
    N1     O18       4.38335  1_545   S
    Zr19   O20       2.18128      .   S
    N3     O20       4.38223  1_556   S
    Zr19   O21       2.18080      .   S
    N5     O21       4.38182  1_556   S
    Zr19   O22       2.18246      .   S
    N0     O22       4.38372      .   S
    Zr19   O23       2.18109      .   S
    N5     O23       4.38211  1_556   S
    Zr19   O24       2.18092      .   S
    N2     O24       4.38175      .   S
    Zr19   O25       2.18222      .   S
    N1     O25       4.38335  1_556   S
    Zr19   O26       2.18190      .   S
    N1     O26       4.38320  1_556   S
    Zr19   O27       2.18125      .   S
    N3     O27       4.38227  1_556   S
    Zr19   O28       2.18118      .   S
    N4     O28       4.38214      .   S
    Zr19   O29       2.18248      .   S
    N0     O29       4.38369      .   S
    Zr19   O30       2.18125      .   S
    N4     O30       4.38207      .   S
    Zr19   O31       2.18066      .   S
    N2     O31       4.38144      .   S
