# CIF file generated by openbabel 2.4.90, see http://openbabel.sf.net
data_I
_chemical_name_common ''
_cell_length_a 18.42
_cell_length_b 18.428
_cell_length_c 18.43
_cell_angle_alpha 60.169
_cell_angle_beta 60.182
_cell_angle_gamma 60.18
_space_group_name_H-M_alt 'P 1'
_space_group_name_Hall 'P 1'
loop_
    _symmetry_equiv_pos_as_xyz
    x,y,z
loop_
    _atom_site_label
    _atom_site_type_symbol
    _atom_site_fract_x
    _atom_site_fract_y
    _atom_site_fract_z
    _atom_site_occupancy
    C0      C    0.20663   0.38035   0.20677   1.000
    C1      C    0.38043   0.20662   0.20663   1.000
    C2      C    0.20633   0.20621   0.20622   1.000
    C3      C    0.20663   0.20677   0.38034   1.000
    C4      C    0.61959   0.79339   0.79334   1.000
    C5      C    0.79339   0.61966   0.79300   1.000
    C6      C    0.79369   0.79380   0.79375   1.000
    C7      C    0.79338   0.79324   0.61963   1.000
    C8      C    0.04864   0.56773   0.04860   1.000
    C9      C    0.56816   0.04832   0.33569   1.000
    C10     C    0.04756   0.33571   0.04760   1.000
    C11     C    0.33564   0.04835   0.56808   1.000
    C12     C    0.04755   0.04761   0.33571   1.000
    C13     C    0.56817   0.33569   0.04830   1.000
    C14     C    0.04863   0.04863   0.56770   1.000
    C15     C    0.33564   0.56811   0.04833   1.000
    C16     C    0.04828   0.33569   0.56811   1.000
    C17     C    0.56792   0.04854   0.04852   1.000
    C18     C    0.04826   0.56816   0.33568   1.000
    C19     C    0.33566   0.04764   0.04762   1.000
    C20     C    0.43210   0.95148   0.95144   1.000
    C21     C    0.95175   0.43186   0.66428   1.000
    C22     C    0.66436   0.95238   0.95234   1.000
    C23     C    0.95173   0.66433   0.43185   1.000
    C24     C    0.95246   0.95241   0.66425   1.000
    C25     C    0.66438   0.43190   0.95160   1.000
    C26     C    0.95139   0.95139   0.43227   1.000
    C27     C    0.43185   0.66433   0.95166   1.000
    C28     C    0.66438   0.95166   0.43189   1.000
    C29     C    0.95137   0.43229   0.95138   1.000
    C30     C    0.43186   0.95170   0.66428   1.000
    C31     C    0.95245   0.66430   0.95238   1.000
    C32     C    0.02694   0.53883   0.02692   1.000
    C33     C    0.53908   0.02676   0.40766   1.000
    C34     C    0.02634   0.40768   0.02637   1.000
    C35     C    0.40764   0.02678   0.53902   1.000
    C36     C    0.02634   0.02637   0.40767   1.000
    C37     C    0.53909   0.40767   0.02675   1.000
    C38     C    0.02694   0.02694   0.53881   1.000
    C39     C    0.40764   0.53904   0.02670   1.000
    C40     C    0.02674   0.40767   0.53904   1.000
    C41     C    0.53894   0.02689   0.02680   1.000
    C42     C    0.02673   0.53908   0.40766   1.000
    C43     C    0.40765   0.02639   0.02637   1.000
    C44     C    0.46108   0.97313   0.97309   1.000
    C45     C    0.97329   0.46094   0.59231   1.000
    C46     C    0.59237   0.97363   0.97359   1.000
    C47     C    0.97328   0.59234   0.46093   1.000
    C48     C    0.97367   0.97365   0.59229   1.000
    C49     C    0.59237   0.46097   0.97320   1.000
    C50     C    0.97307   0.97308   0.46116   1.000
    C51     C    0.46093   0.59235   0.97321   1.000
    C52     C    0.59237   0.97324   0.46090   1.000
    C53     C    0.97307   0.46118   0.97305   1.000
    C54     C    0.46093   0.97326   0.59231   1.000
    C55     C    0.97367   0.59233   0.97361   1.000
    C56     C    0.11097   0.38871   0.11090   1.000
    C57     C    0.05363   0.44617   0.05360   1.000
    C58     C    0.38906   0.11132   0.38904   1.000
    C59     C    0.44638   0.05386   0.44636   1.000
    C60     C    0.11096   0.11097   0.38870   1.000
    C61     C    0.05362   0.05365   0.44616   1.000
    C62     C    0.38907   0.38904   0.11131   1.000
    C63     C    0.44638   0.44637   0.05380   1.000
    C64     C    0.11122   0.38910   0.38908   1.000
    C65     C    0.05380   0.44640   0.44638   1.000
    C66     C    0.38883   0.11091   0.11092   1.000
    C67     C    0.44624   0.05361   0.05361   1.000
    C68     C    0.61119   0.88911   0.88904   1.000
    C69     C    0.55378   0.94641   0.94636   1.000
    C70     C    0.88880   0.61092   0.61089   1.000
    C71     C    0.94622   0.55361   0.55359   1.000
    C72     C    0.88905   0.88905   0.61126   1.000
    C73     C    0.94639   0.94637   0.55381   1.000
    C74     C    0.61095   0.61097   0.88866   1.000
    C75     C    0.55363   0.55364   0.94612   1.000
    C76     C    0.61096   0.88870   0.61093   1.000
    C77     C    0.55364   0.94616   0.55361   1.000
    C78     C    0.88904   0.61131   0.88902   1.000
    C79     C    0.94638   0.55384   0.94634   1.000
    C80     C    0.24994   0.24992   0.24992   1.000
    C81     C    0.75007   0.75009   0.75005   1.000
    C82     C    0.13315   0.42824   0.13335   1.000
    C83     C    0.42865   0.13333   0.30528   1.000
    C84     C    0.13300   0.30494   0.13273   1.000
    C85     C    0.30526   0.13358   0.42861   1.000
    C86     C    0.13300   0.13274   0.30494   1.000
    C87     C    0.42866   0.30527   0.13333   1.000
    C88     C    0.13315   0.13336   0.42823   1.000
    C89     C    0.30527   0.42862   0.13358   1.000
    C90     C    0.13334   0.30532   0.42865   1.000
    C91     C    0.42841   0.13318   0.13319   1.000
    C92     C    0.13335   0.42868   0.30531   1.000
    C93     C    0.30502   0.13283   0.13284   1.000
    C94     C    0.57161   0.86683   0.86678   1.000
    C95     C    0.86667   0.57134   0.69466   1.000
    C96     C    0.69500   0.86719   0.86712   1.000
    C97     C    0.86667   0.69469   0.57131   1.000
    C98     C    0.86702   0.86728   0.69502   1.000
    C99     C    0.69475   0.57140   0.86630   1.000
    C100    C    0.86687   0.86665   0.57170   1.000
    C101    C    0.57135   0.69474   0.86664   1.000
    C102    C    0.69475   0.86643   0.57136   1.000
    C103    C    0.86687   0.57177   0.86662   1.000
    C104    C    0.57136   0.86669   0.69469   1.000
    C105    C    0.86701   0.69508   0.86724   1.000
    O106    O    0.03695   0.37170   0.03699   1.000
    O107    O    0.03998   0.42693   0.03999   1.000
    O108    O    0.99970   0.43443   0.99971   1.000
    O109    O    0.37166   0.03701   0.03700   1.000
    O110    O    0.42695   0.04000   0.03999   1.000
    O111    O    0.43437   0.99976   0.99973   1.000
    O112    O    0.37164   0.55358   0.03752   1.000
    O113    O    0.42701   0.49271   0.04025   1.000
    O114    O    0.43429   0.56570   0.99996   1.000
    O115    O    0.55363   0.37168   0.03753   1.000
    O116    O    0.49274   0.42702   0.04028   1.000
    O117    O    0.56573   0.43432   0.99998   1.000
    O118    O    0.55343   0.03772   0.03766   1.000
    O119    O    0.49259   0.04025   0.04021   1.000
    O120    O    0.56565   0.00026   0.00020   1.000
    O121    O    0.03779   0.55328   0.03776   1.000
    O122    O    0.04029   0.49250   0.04026   1.000
    O123    O    0.00031   0.56558   0.00027   1.000
    O124    O    0.08230   0.41744   0.08225   1.000
    O125    O    0.41754   0.08226   0.08227   1.000
    O126    O    0.41773   0.41771   0.08256   1.000
    O127    O    0.12199   0.34682   0.12182   1.000
    O128    O    0.12206   0.40847   0.12212   1.000
    O129    O    0.34692   0.12187   0.12188   1.000
    O130    O    0.40862   0.12205   0.12206   1.000
    O131    O    0.40887   0.34716   0.12232   1.000
    O132    O    0.34717   0.40883   0.12245   1.000
    O133    O    0.16967   0.25557   0.16947   1.000
    O134    O    0.25568   0.16952   0.16953   1.000
    O135    O    0.40442   0.16990   0.16991   1.000
    O136    O    0.40455   0.25595   0.16998   1.000
    O137    O    0.16989   0.40430   0.17006   1.000
    O138    O    0.25595   0.40449   0.17018   1.000
    O139    O    0.16967   0.16947   0.25558   1.000
    O140    O    0.40454   0.16998   0.25595   1.000
    O141    O    0.22829   0.31514   0.22835   1.000
    O142    O    0.16999   0.40452   0.25604   1.000
    O143    O    0.22829   0.22835   0.31513   1.000
    O144    O    0.12198   0.12185   0.34682   1.000
    O145    O    0.40886   0.12232   0.34716   1.000
    O146    O    0.12228   0.40889   0.34720   1.000
    O147    O    0.03749   0.55362   0.37167   1.000
    O148    O    0.55362   0.03754   0.37167   1.000
    O149    O    0.03695   0.03699   0.37169   1.000
    O150    O    0.16989   0.17007   0.40429   1.000
    O151    O    0.25595   0.17018   0.40448   1.000
    O152    O    0.16999   0.25605   0.40450   1.000
    O153    O    0.12205   0.12217   0.40847   1.000
    O154    O    0.08229   0.08231   0.41743   1.000
    O155    O    0.34716   0.12245   0.40883   1.000
    O156    O    0.41772   0.08259   0.41770   1.000
    O157    O    0.12228   0.34721   0.40886   1.000
    O158    O    0.08251   0.41775   0.41773   1.000
    O159    O    0.49273   0.04031   0.42701   1.000
    O160    O    0.56573   1.00000   0.43428   1.000
    O161    O    0.04026   0.49274   0.42702   1.000
    O162    O    0.00000   0.56571   0.43430   1.000
    O163    O    0.03998   0.04001   0.42692   1.000
    O164    O    0.99971   0.99973   0.43442   1.000
    O165    O    0.96250   0.62834   0.44639   1.000
    O166    O    0.62837   0.96245   0.44639   1.000
    O167    O    0.96223   0.96223   0.44672   1.000
    O168    O    0.04028   0.04029   0.49249   1.000
    O169    O    0.42701   0.04032   0.49269   1.000
    O170    O    0.04027   0.42704   0.49271   1.000
    O171    O    0.57300   0.95970   0.50726   1.000
    O172    O    0.95974   0.57298   0.50726   1.000
    O173    O    0.95973   0.95973   0.50749   1.000
    O174    O    0.03778   0.03779   0.55326   1.000
    O175    O    0.00031   0.00029   0.56555   1.000
    O176    O    0.37164   0.03756   0.55355   1.000
    O177    O    0.43429   0.00002   0.56567   1.000
    O178    O    0.03751   0.37168   0.55358   1.000
    O179    O    0.00001   0.43431   0.56568   1.000
    O180    O    0.95975   0.50728   0.57295   1.000
    O181    O    0.91751   0.58227   0.58224   1.000
    O182    O    0.50729   0.95971   0.57296   1.000
    O183    O    0.58230   0.91743   0.58227   1.000
    O184    O    0.96003   0.96001   0.57305   1.000
    O185    O    0.91772   0.91771   0.58254   1.000
    O186    O    0.87774   0.65280   0.59110   1.000
    O187    O    0.83003   0.74397   0.59547   1.000
    O188    O    0.65286   0.87757   0.59114   1.000
    O189    O    0.74407   0.82984   0.59549   1.000
    O190    O    0.87796   0.87785   0.59148   1.000
    O191    O    0.83013   0.82995   0.59567   1.000
    O192    O    0.96307   0.96303   0.62827   1.000
    O193    O    0.44640   0.96248   0.62830   1.000
    O194    O    0.96252   0.44640   0.62830   1.000
    O195    O    0.87773   0.59113   0.65278   1.000
    O196    O    0.59116   0.87769   0.65281   1.000
    O197    O    0.87804   0.87816   0.65314   1.000
    O198    O    0.77173   0.77167   0.68484   1.000
    O199    O    0.83003   0.59550   0.74383   1.000
    O200    O    0.59548   0.83004   0.74401   1.000
    O201    O    0.83035   0.83054   0.74438   1.000
    O202    O    0.77173   0.68488   0.77153   1.000
    O203    O    0.74407   0.59553   0.82965   1.000
    O204    O    0.83013   0.59572   0.82981   1.000
    O205    O    0.59547   0.74407   0.82999   1.000
    O206    O    0.59560   0.83011   0.83006   1.000
    O207    O    0.74434   0.83050   0.83044   1.000
    O208    O    0.83035   0.74444   0.83049   1.000
    O209    O    0.65285   0.59118   0.87748   1.000
    O210    O    0.87796   0.59154   0.87782   1.000
    O211    O    0.59115   0.65286   0.87765   1.000
    O212    O    0.59140   0.87797   0.87791   1.000
    O213    O    0.65309   0.87815   0.87808   1.000
    O214    O    0.87803   0.65319   0.87813   1.000
    O215    O    0.58229   0.58231   0.91739   1.000
    O216    O    0.91771   0.58257   0.91768   1.000
    O217    O    0.58248   0.91776   0.91770   1.000
    O218    O    0.57300   0.50731   0.95966   1.000
    O219    O    0.50728   0.57299   0.95967   1.000
    O220    O    0.95972   0.50751   0.95970   1.000
    O221    O    0.96003   0.57309   0.95998   1.000
    O222    O    0.50743   0.95977   0.95973   1.000
    O223    O    0.57307   0.96002   0.95998   1.000
    O224    O    0.96222   0.44673   0.96222   1.000
    O225    O    0.44659   0.96230   0.96227   1.000
    O226    O    0.62838   0.44644   0.96240   1.000
    O227    O    0.44639   0.62834   0.96244   1.000
    O228    O    0.62836   0.96301   0.96297   1.000
    O229    O    0.96306   0.62832   0.96300   1.000
    O230    O    0.31519   0.22827   0.22828   1.000
    O231    O    0.22814   0.22806   0.22807   1.000
    O232    O    0.68483   0.77174   0.77170   1.000
    O233    O    0.77188   0.77195   0.77190   1.000
loop_
    _geom_bond_atom_site_label_1
    _geom_bond_atom_site_label_2
    _geom_bond_distance
    _geom_bond_site_symmetry_2
    _ccdc_geom_bond_type
    C34    O106      0.54431      .   S
    C10    O106      0.54431      .   S
    C34    O107      0.70130      .   S
    C57    O107      0.70130      .   S
    C34    O108      0.69525  1_454   S
    C53    O108      0.69525      .   S
    C43    O109      0.54431      .   S
    C19    O109      0.54431      .   S
    C43    O110      0.70166      .   S
    C67    O110      0.70166      .   S
    C43    O111      0.69517  1_544   S
    C44    O111      0.69517      .   S
    C39    O112      0.54430      .   S
    C15    O112      0.54430      .   S
    C39    O113      0.70160      .   S
    C63    O113      0.70160      .   S
    C39    O114      0.69520  1_554   S
    C51    O114      0.69520      .   S
    C37    O115      0.54429      .   S
    C13    O115      0.54429      .   S
    C37    O116      0.70160      .   S
    C63    O116      0.70160      .   S
    C37    O117      0.69521  1_554   S
    C49    O117      0.69521      .   S
    C41    O118      0.54484      .   S
    C17    O118      0.54484      .   S
    C41    O119      0.70160      .   S
    C67    O119      0.70160      .   S
    C41    O120      0.69472      .   S
    C46    O120      0.69472  1_566   S
    C32    O121      0.54431      .   S
    C8     O121      0.54431      .   S
    C32    O122      0.70168      .   S
    C57    O122      0.70168      .   S
    C32    O123      0.69519      .   S
    C55    O123      0.69519  1_656   S
    C57    O124      0.74773      .   S
    C56    O124      0.74773      .   S
    C67    O125      0.74784      .   S
    C66    O125      0.74784      .   S
    C63    O126      0.74776      .   S
    C62    O126      0.74776      .   S
    C56    O127      0.63857      .   S
    C84    O127      0.63857      .   S
    C56    O128      0.63891      .   S
    C82    O128      0.63891      .   S
    C66    O129      0.63863      .   S
    C93    O129      0.63863      .   S
    C66    O130      0.63859      .   S
    C91    O130      0.63859      .   S
    C62    O131      0.63857      .   S
    C87    O131      0.63857      .   S
    C62    O132      0.63857      .   S
    C89    O132      0.63857      .   S
    C84    O133      0.98651      .   S
    C2     O133      0.98651      .   S
    C93    O134      0.98639      .   S
    C2     O134      0.98639      .   S
    C91    O135      0.98585      .   S
    C1     O135      0.98585      .   S
    C87    O136      0.98600      .   S
    C1     O136      0.98600      .   S
    C82    O137      0.98578      .   S
    C0     O137      0.98578      .   S
    C89    O138      0.98591      .   S
    C0     O138      0.98591      .   S
    C2     O139      0.98644      .   S
    C86    O139      0.98644      .   S
    C1     O140      0.98599      .   S
    C83    O140      0.98599      .   S
    C0     O141      0.98343      .   S
    C80    O141      0.98343      .   S
    C0     O142      0.98599      .   S
    C92    O142      0.98599      .   S
    C80    O143      0.98344      .   S
    C3     O143      0.98344      .   S
    C86    O144      0.63863      .   S
    C60    O144      0.63863      .   S
    C83    O145      0.63856      .   S
    C58    O145      0.63856      .   S
    C92    O146      0.63860      .   S
    C64    O146      0.63860      .   S
    C18    O147      0.54433      .   S
    C42    O147      0.54433      .   S
    C9     O148      0.54427      .   S
    C33    O148      0.54427      .   S
    C12    O149      0.54430      .   S
    C36    O149      0.54430      .   S
    C3     O150      0.98573      .   S
    C88    O150      0.98573      .   S
    C3     O151      0.98585      .   S
    C85    O151      0.98585      .   S
    C3     O152      0.98593      .   S
    C90    O152      0.98593      .   S
    C60    O153      0.63856      .   S
    C88    O153      0.63856      .   S
    C60    O154      0.74783      .   S
    C61    O154      0.74783      .   S
    C58    O155      0.63857      .   S
    C85    O155      0.63857      .   S
    C58    O156      0.74775      .   S
    C59    O156      0.74775      .   S
    C64    O157      0.63857      .   S
    C90    O157      0.63857      .   S
    C64    O158      0.74780      .   S
    C65    O158      0.74780      .   S
    C33    O159      0.70159      .   S
    C59    O159      0.70159      .   S
    C33    O160      0.69486  1_545   S
    C52    O160      0.69486      .   S
    C42    O161      0.70161      .   S
    C65    O161      0.70161      .   S
    C42    O162      0.69518      .   S
    C47    O162      0.69518  1_655   S
    C36    O163      0.70160      .   S
    C61    O163      0.70160      .   S
    C36    O164      0.69501  1_445   S
    C50    O164      0.69501      .   S
    C23    O165      0.54430      .   S
    C47    O165      0.54430      .   S
    C28    O166      0.54426      .   S
    C52    O166      0.54426      .   S
    C26    O167      0.54429      .   S
    C50    O167      0.54429      .   S
    C61    O168      0.70167      .   S
    C38    O168      0.70167      .   S
    C59    O169      0.70160      .   S
    C35    O169      0.70160      .   S
    C65    O170      0.70158      .   S
    C40    O170      0.70158      .   S
    C52    O171      0.70196      .   S
    C77    O171      0.70196      .   S
    C47    O172      0.70158      .   S
    C71    O172      0.70158      .   S
    C50    O173      0.70167      .   S
    C73    O173      0.70167      .   S
    C38    O174      0.54428      .   S
    C14    O174      0.54428      .   S
    C38    O175      0.69501      .   S
    C48    O175      0.69501  1_665   S
    C35    O176      0.54429      .   S
    C11    O176      0.54429      .   S
    C35    O177      0.69518      .   S
    C54    O177      0.69518  1_565   S
    C40    O178      0.54429      .   S
    C16    O178      0.54429      .   S
    C40    O179      0.69518      .   S
    C45    O179      0.69518  1_655   S
    C71    O180      0.70161      .   S
    C45    O180      0.70161      .   S
    C71    O181      0.74780      .   S
    C70    O181      0.74780      .   S
    C77    O182      0.70159      .   S
    C54    O182      0.70159      .   S
    C77    O183      0.74775      .   S
    C76    O183      0.74775      .   S
    C73    O184      0.70153      .   S
    C48    O184      0.70153      .   S
    C73    O185      0.74783      .   S
    C72    O185      0.74783      .   S
    C97    O186      0.63857      .   S
    C70    O186      0.63857      .   S
    C97    O187      0.98598      .   S
    C7     O187      0.98598      .   S
    C102   O188      0.63857      .   S
    C76    O188      0.63857      .   S
    C102   O189      0.98586      .   S
    C7     O189      0.98586      .   S
    C100   O190      0.63881      .   S
    C72    O190      0.63881      .   S
    C100   O191      0.98565      .   S
    C7     O191      0.98565      .   S
    C48    O192      0.54430      .   S
    C24    O192      0.54430      .   S
    C54    O193      0.54427      .   S
    C30    O193      0.54427      .   S
    C45    O194      0.54426      .   S
    C21    O194      0.54426      .   S
    C70    O195      0.63860      .   S
    C95    O195      0.63860      .   S
    C76    O196      0.63856      .   S
    C104   O196      0.63856      .   S
    C72    O197      0.63863      .   S
    C98    O197      0.63863      .   S
    C7     O198      0.98344      .   S
    C81    O198      0.98344      .   S
    C95    O199      0.98451      .   S
    C5     O199      0.98451      .   S
    C104   O200      0.98600      .   S
    C4     O200      0.98600      .   S
    C98    O201      0.98645      .   S
    C6     O201      0.98645      .   S
    C81    O202      0.98343      .   S
    C5     O202      0.98343      .   S
    C5     O203      0.98592      .   S
    C99    O203      0.98592      .   S
    C5     O204      0.98724      .   S
    C103   O204      0.98724      .   S
    C4     O205      0.98600      .   S
    C101   O205      0.98600      .   S
    C4     O206      0.98586      .   S
    C94    O206      0.98586      .   S
    C6     O207      0.98634      .   S
    C96    O207      0.98634      .   S
    C6     O208      0.98650      .   S
    C105   O208      0.98650      .   S
    C99    O209      0.63857      .   S
    C74    O209      0.63857      .   S
    C103   O210      0.63853      .   S
    C78    O210      0.63853      .   S
    C101   O211      0.63858      .   S
    C74    O211      0.63858      .   S
    C94    O212      0.63854      .   S
    C68    O212      0.63854      .   S
    C96    O213      0.63864      .   S
    C68    O213      0.63864      .   S
    C105   O214      0.63864      .   S
    C78    O214      0.63864      .   S
    C74    O215      0.74775      .   S
    C75    O215      0.74775      .   S
    C78    O216      0.74783      .   S
    C79    O216      0.74783      .   S
    C68    O217      0.74792      .   S
    C69    O217      0.74792      .   S
    C75    O218      0.70161      .   S
    C49    O218      0.70161      .   S
    C75    O219      0.70159      .   S
    C51    O219      0.70159      .   S
    C79    O220      0.70166      .   S
    C53    O220      0.70166      .   S
    C79    O221      0.70160      .   S
    C55    O221      0.70160      .   S
    C69    O222      0.70165      .   S
    C44    O222      0.70165      .   S
    C69    O223      0.70157      .   S
    C46    O223      0.70157      .   S
    C29    O224      0.54425      .   S
    C53    O224      0.54425      .   S
    C20    O225      0.54433      .   S
    C44    O225      0.54433      .   S
    C25    O226      0.54429      .   S
    C49    O226      0.54429      .   S
    C27    O227      0.54429      .   S
    C51    O227      0.54429      .   S
    C22    O228      0.54431      .   S
    C46    O228      0.54431      .   S
    C31    O229      0.54431      .   S
    C55    O229      0.54431      .   S
    C80    O230      0.98349      .   S
    C1     O230      0.98349      .   S
    C80    O231      0.98426      .   S
    C2     O231      0.98426      .   S
    C81    O232      0.98349      .   S
    C4     O232      0.98349      .   S
    C81    O233      0.98427      .   S
    C6     O233      0.98427      .   S
