# CIF file generated by openbabel 2.4.90, see http://openbabel.sf.net
data_I
_chemical_name_common ''
_cell_length_a 14.788
_cell_length_b 18.115
_cell_length_c 19.486
_cell_angle_alpha 90.005
_cell_angle_beta 89.99
_cell_angle_gamma 90.07
_space_group_name_H-M_alt 'P 1'
_space_group_name_Hall 'P 1'
loop_
    _symmetry_equiv_pos_as_xyz
    x,y,z
loop_
    _atom_site_label
    _atom_site_type_symbol
    _atom_site_fract_x
    _atom_site_fract_y
    _atom_site_fract_z
    _atom_site_occupancy
    Lv0     Lv   0.94941   0.87001   0.24642   1.000
    Lv1     Lv   0.44942   0.38003   0.74641   1.000
    Lv2     Lv   0.94932   0.37000   0.24632   1.000
    Lv3     Lv   0.19950   0.12001   0.25350   1.000
    Lv4     Lv   0.19935   0.63002   0.75354   1.000
    Lv5     Lv   0.69953   0.12000   0.25349   1.000
    Lv6     Lv   0.19956   0.62001   0.25355   1.000
    Lv7     Lv   0.44938   0.37000   0.24641   1.000
    Lv8     Lv   0.94947   0.88003   0.74541   1.000
    Lv9     Lv   0.44958   0.88002   0.74642   1.000
    Lv10    Lv   0.94955   0.38002   0.74643   1.000
    Lv11    Lv   0.69938   0.13002   0.75353   1.000
    Lv12    Lv   0.69954   0.62001   0.25351   1.000
    Lv13    Lv   0.44934   0.87001   0.24633   1.000
    Lv14    Lv   0.19938   0.13001   0.75347   1.000
    Lv15    Lv   0.69939   0.63002   0.75351   1.000
