# CIF file generated by openbabel 2.4.90, see http://openbabel.sf.net
data_I
_chemical_name_common ''
_cell_length_a 14.788
_cell_length_b 18.115
_cell_length_c 19.486
_cell_angle_alpha 90.005
_cell_angle_beta 89.99
_cell_angle_gamma 90.07
_space_group_name_H-M_alt 'P 1'
_space_group_name_Hall 'P 1'
loop_
    _symmetry_equiv_pos_as_xyz
    x,y,z
loop_
    _atom_site_label
    _atom_site_type_symbol
    _atom_site_fract_x
    _atom_site_fract_y
    _atom_site_fract_z
    _atom_site_occupancy
    H0      H    0.05461   0.14465   0.68989   1.000
    H1      H    0.05459   0.64467   0.68991   1.000
    H2      H    0.55460   0.14466   0.68994   1.000
    H3      H    0.55462   0.64466   0.68990   1.000
    H4      H    0.05398   0.10732   0.81426   1.000
    H5      H    0.05393   0.60734   0.81428   1.000
    H6      H    0.55398   0.10733   0.81430   1.000
    H7      H    0.55398   0.60735   0.81427   1.000
    H8      H    0.34416   0.11531   0.81710   1.000
    H9      H    0.34411   0.61530   0.81716   1.000
    H10     H    0.84416   0.11530   0.81714   1.000
    H11     H    0.84417   0.61531   0.81712   1.000
    H12     H    0.34480   0.15267   0.69276   1.000
    H13     H    0.34478   0.65268   0.69281   1.000
    H14     H    0.84479   0.15268   0.69279   1.000
    H15     H    0.84482   0.65266   0.69277   1.000
    H16     H    0.30472   0.35529   0.31025   1.000
    H17     H    0.30467   0.85529   0.31026   1.000
    H18     H    0.80466   0.35527   0.31025   1.000
    H19     H    0.80474   0.85531   0.31024   1.000
    H20     H    0.30390   0.39262   0.18588   1.000
    H21     H    0.30386   0.89261   0.18580   1.000
    H22     H    0.80384   0.39260   0.18588   1.000
    H23     H    0.80394   0.89263   0.18587   1.000
    H24     H    0.09399   0.38480   0.18262   1.000
    H25     H    0.09409   0.88479   0.18262   1.000
    H26     H    0.59406   0.38479   0.18260   1.000
    H27     H    0.59402   0.88480   0.18262   1.000
    H28     H    0.09481   0.34743   0.30697   1.000
    H29     H    0.09489   0.84741   0.30696   1.000
    H30     H    0.59489   0.34740   0.30694   1.000
    H31     H    0.59484   0.84743   0.30696   1.000
    H32     H    0.05471   0.10539   0.18985   1.000
    H33     H    0.05474   0.60540   0.18994   1.000
    H34     H    0.55473   0.10536   0.18992   1.000
    H35     H    0.55472   0.60539   0.18990   1.000
    H36     H    0.05413   0.14272   0.31420   1.000
    H37     H    0.05423   0.64274   0.31431   1.000
    H38     H    0.55418   0.14270   0.31400   1.000
    H39     H    0.55420   0.64271   0.31420   1.000
    H40     H    0.34429   0.13469   0.31715   1.000
    H41     H    0.34439   0.63470   0.31715   1.000
    H42     H    0.84433   0.13470   0.31718   1.000
    H43     H    0.84436   0.63469   0.31713   1.000
    H44     H    0.34488   0.09732   0.19280   1.000
    H45     H    0.34490   0.59731   0.19279   1.000
    H46     H    0.84489   0.09732   0.19280   1.000
    H47     H    0.84489   0.59733   0.19277   1.000
    H48     H    0.30460   0.39463   0.81000   1.000
    H49     H    0.30469   0.89459   0.80995   1.000
    H50     H    0.80468   0.39461   0.80996   1.000
    H51     H    0.80463   0.89461   0.80000   1.000
    H52     H    0.30406   0.35730   0.68564   1.000
    H53     H    0.30428   0.85726   0.68558   1.000
    H54     H    0.80425   0.35727   0.68559   1.000
    H55     H    0.80414   0.85728   0.68562   1.000
    H56     H    0.09442   0.36537   0.68290   1.000
    H57     H    0.09431   0.86537   0.68286   1.000
    H58     H    0.59424   0.36535   0.68282   1.000
    H59     H    0.59447   0.86538   0.68292   1.000
    H60     H    0.09486   0.40275   0.80726   1.000
    H61     H    0.09480   0.90274   0.80722   1.000
    H62     H    0.59479   0.40273   0.80717   1.000
    H63     H    0.59488   0.90276   0.80728   1.000
    C64     C    0.94978   0.90038   0.81560   1.000
    C65     C    0.36749   0.38797   0.78161   1.000
    C66     C    0.36761   0.88795   0.78158   1.000
    C67     C    0.86760   0.38795   0.78159   1.000
    C68     C    0.19977   0.15036   0.68424   1.000
    C69     C    0.19975   0.65038   0.68428   1.000
    C70     C    0.69976   0.15038   0.68420   1.000
    C71     C    0.69978   0.65036   0.68425   1.000
    C72     C    0.11748   0.13797   0.71800   1.000
    C73     C    0.11745   0.63799   0.71833   1.000
    C74     C    0.61747   0.13798   0.71834   1.000
    C75     C    0.61749   0.63799   0.71830   1.000
    C76     C    0.11710   0.11765   0.78710   1.000
    C77     C    0.11706   0.61767   0.78713   1.000
    C78     C    0.61710   0.11766   0.78714   1.000
    C79     C    0.61711   0.61767   0.78711   1.000
    C80     C    0.19899   0.10965   0.82275   1.000
    C81     C    0.19894   0.60966   0.82279   1.000
    C82     C    0.69899   0.10965   0.82279   1.000
    C83     C    0.69899   0.60967   0.82270   1.000
    C84     C    0.28129   0.12209   0.78872   1.000
    C85     C    0.28125   0.62210   0.78877   1.000
    C86     C    0.78129   0.12209   0.78875   1.000
    C87     C    0.78130   0.62210   0.78873   1.000
    C88     C    0.28165   0.14243   0.71992   1.000
    C89     C    0.28163   0.64244   0.71990   1.000
    C90     C    0.78165   0.14243   0.71995   1.000
    C91     C    0.78167   0.64243   0.71993   1.000
    C92     C    0.44988   0.34964   0.31567   1.000
    C93     C    0.44984   0.84966   0.31569   1.000
    C94     C    0.94982   0.34964   0.31560   1.000
    C95     C    0.94990   0.84966   0.31568   1.000
    C96     C    0.36754   0.36200   0.28175   1.000
    C97     C    0.36750   0.86200   0.28176   1.000
    C98     C    0.86748   0.36199   0.28176   1.000
    C99     C    0.86757   0.86201   0.28175   1.000
    C100    C    0.36705   0.38232   0.21294   1.000
    C101    C    0.36701   0.88232   0.21295   1.000
    C102    C    0.86700   0.38230   0.21295   1.000
    C103    C    0.86709   0.88233   0.21295   1.000
    C104    C    0.44888   0.39037   0.17717   1.000
    C105    C    0.44884   0.89037   0.17718   1.000
    C106    C    0.94883   0.39036   0.17718   1.000
    C107    C    0.94892   0.89037   0.17718   1.000
    C108    C    0.03116   0.37797   0.21100   1.000
    C109    C    0.03125   0.87797   0.21109   1.000
    C110    C    0.53123   0.37796   0.21100   1.000
    C111    C    0.53119   0.87798   0.21109   1.000
    C112    C    0.03163   0.35763   0.27900   1.000
    C113    C    0.03172   0.85763   0.27989   1.000
    C114    C    0.53171   0.35762   0.27987   1.000
    C115    C    0.53167   0.85764   0.27900   1.000
    C116    C    0.19986   0.09965   0.18425   1.000
    C117    C    0.19988   0.59965   0.18429   1.000
    C118    C    0.69987   0.09964   0.18400   1.000
    C119    C    0.69987   0.59966   0.18426   1.000
    C120    C    0.11759   0.11206   0.21827   1.000
    C121    C    0.11763   0.61207   0.21834   1.000
    C122    C    0.61761   0.11204   0.21833   1.000
    C123    C    0.61761   0.61206   0.21831   1.000
    C124    C    0.11724   0.13237   0.28708   1.000
    C125    C    0.11732   0.63239   0.28715   1.000
    C126    C    0.61727   0.13236   0.28714   1.000
    C127    C    0.61729   0.63238   0.28712   1.000
    C128    C    0.19913   0.14037   0.32275   1.000
    C129    C    0.19925   0.64039   0.32280   1.000
    C130    C    0.69918   0.14036   0.32280   1.000
    C131    C    0.69921   0.64036   0.32277   1.000
    C132    C    0.28141   0.12791   0.28875   1.000
    C133    C    0.28150   0.62792   0.28876   1.000
    C134    C    0.78145   0.12791   0.28878   1.000
    C135    C    0.78147   0.62791   0.28870   1.000
    C136    C    0.28176   0.10758   0.21994   1.000
    C137    C    0.28180   0.60758   0.21996   1.000
    C138    C    0.78178   0.10757   0.21998   1.000
    C139    C    0.78178   0.60758   0.21993   1.000
    C140    C    0.44975   0.40039   0.81567   1.000
    C141    C    0.44984   0.90038   0.81569   1.000
    C142    C    0.94983   0.40038   0.81569   1.000
    C143    C    0.86753   0.88796   0.78161   1.000
    C144    C    0.36716   0.36765   0.71281   1.000
    C145    C    0.36736   0.86762   0.71277   1.000
    C146    C    0.86733   0.36763   0.71278   1.000
    C147    C    0.86723   0.86764   0.71280   1.000
    C148    C    0.44908   0.35966   0.67716   1.000
    C149    C    0.44933   0.85966   0.67718   1.000
    C150    C    0.94929   0.35966   0.67718   1.000
    C151    C    0.94917   0.85967   0.67717   1.000
    C152    C    0.03151   0.37213   0.71126   1.000
    C153    C    0.03141   0.87213   0.71123   1.000
    C154    C    0.53135   0.37213   0.71120   1.000
    C155    C    0.53155   0.87214   0.71120   1.000
    C156    C    0.03176   0.39248   0.78006   1.000
    C157    C    0.03169   0.89247   0.78000   1.000
    C158    C    0.53167   0.39247   0.78000   1.000
    C159    C    0.53179   0.89248   0.78000   1.000
loop_
    _geom_bond_atom_site_label_1
    _geom_bond_atom_site_label_2
    _geom_bond_distance
    _geom_bond_site_symmetry_2
    _ccdc_geom_bond_type
    C104   C110      1.40324      .   S
    C104   C100      1.40378      .   S
    C107   C109      1.40367  1_655   S
    C107   C103      1.40385      .   S
    C106   C108      1.40289  1_655   S
    C106   C102      1.40382      .   S
    C105   C111      1.40393      .   S
    C105   C101      1.40381      .   S
    H26    C110      1.08825      .   S
    H27    C111      1.08898      .   S
    H25    C109      1.08903      .   S
    H24    C108      1.08809      .   S
    C118   C122      1.40649      .   S
    C118   C138      1.40678      .   S
    C116   C120      1.40374      .   S
    C116   C136      1.40385      .   S
    C119   C123      1.40380      .   S
    C119   C139      1.40386      .   S
    C117   C121      1.40378      .   S
    C117   C137      1.40393      .   S
    H21    C101      1.08972      .   S
    H23    C103      1.08902      .   S
    H22    C102      1.08896      .   S
    H20    C100      1.08889      .   S
    H32    C120      1.08894      .   S
    H35    C123      1.08902      .   S
    H34    C122      1.08894      .   S
    H33    C121      1.08898      .   S
    H47    C139      1.08894      .   S
    H45    C137      1.08900      .   S
    H46    C138      1.08920      .   S
    H44    C136      1.08890      .   S
    C108   C112      1.37537      .   S
    C110   C114      1.39173      .   S
    C109   C113      1.39040      .   S
    C111   C115      1.37368      .   S
    C100   C96       1.39049      .   S
    C103   C99       1.39029      .   S
    C102   C98       1.39047      .   S
    C101   C97       1.39046      .   S
    C120   C124      1.39041      .   S
    C123   C127      1.39041      .   S
    C122   C126      1.39043      .   S
    C121   C125      1.39044      .   S
    C139   C135      1.38974      .   S
    C136   C132      1.39049      .   S
    C137   C133      1.39034      .   S
    C138   C134      1.39033      .   S
    C115   H31       1.09750      .   S
    C115   C93       1.41268      .   S
    C112   H28       1.09758      .   S
    C112   C94       1.41160  1_455   S
    C114   H30       1.08901      .   S
    C114   C92       1.40398      .   S
    C113   H29       1.08896      .   S
    C113   C95       1.40372  1_455   S
    C99    H19       1.08893      .   S
    C99    C95       1.40377      .   S
    C96    H16       1.08895      .   S
    C96    C92       1.40378      .   S
    C98    H18       1.08890      .   S
    C98    C94       1.40298      .   S
    C97    H17       1.08898      .   S
    C97    C93       1.40380      .   S
    C124   H36       1.08874      .   S
    C124   C128      1.40382      .   S
    C127   H39       1.08822      .   S
    C127   C131      1.40386      .   S
    C126   H38       1.08622      .   S
    C126   C130      1.40386      .   S
    C125   H37       1.08896      .   S
    C125   C129      1.40396      .   S
    C135   H43       1.08940      .   S
    C135   C131      1.40421      .   S
    C132   H40       1.08896      .   S
    C132   C128      1.40381      .   S
    C133   H41       1.08905      .   S
    C133   C129      1.40388      .   S
    C134   H42       1.08906      .   S
    C134   C130      1.40386      .   S
    C148   C154      1.40386      .   S
    C148   C144      1.40396      .   S
    C151   C153      1.40360  1_655   S
    C151   C147      1.40397      .   S
    C150   C152      1.40355  1_655   S
    C150   C146      1.40395      .   S
    C149   C155      1.40310      .   S
    C149   C145      1.40397      .   S
    H58    C154      1.08897      .   S
    H57    C153      1.08899      .   S
    H56    C152      1.08903      .   S
    H59    C155      1.08827      .   S
    C70    C74       1.40456      .   S
    C70    C90       1.40475      .   S
    C68    C72       1.40107      .   S
    C68    C88       1.40401      .   S
    C71    C75       1.40371      .   S
    C71    C91       1.40397      .   S
    C69    C73       1.40384      .   S
    C69    C89       1.40336      .   S
    H53    C145      1.08893      .   S
    H54    C146      1.08897      .   S
    H55    C147      1.08901      .   S
    H52    C144      1.08903      .   S
    H0     C72       1.08606      .   S
    H3     C75       1.08890      .   S
    H1     C73       1.08903      .   S
    H2     C74       1.08895      .   S
    H12    C88       1.08899      .   S
    H15    C91       1.08900      .   S
    H14    C90       1.08897      .   S
    H13    C89       1.08840      .   S
    C154   C158      1.39033      .   S
    C155   C159      1.39032      .   S
    C153   C157      1.38976      .   S
    C152   C156      1.39033      .   S
    C145   C66       1.39042      .   S
    C146   C67       1.39043      .   S
    C147   C143      1.39043      .   S
    C144   C65       1.39025      .   S
    C72    C76       1.39591      .   S
    C75    C79       1.39045      .   S
    C73    C77       1.39030      .   S
    C74    C78       1.39032      .   S
    C89    C85       1.39171      .   S
    C88    C84       1.39036      .   S
    C91    C87       1.39035      .   S
    C90    C86       1.39041      .   S
    C159   H63       1.08967      .   S
    C159   C141      1.40464      .   S
    C158   H62       1.08899      .   S
    C158   C140      1.40400      .   S
    C157   H61       1.08933      .   S
    C157   C64       1.40326  1_455   S
    C156   H60       1.08898      .   S
    C156   C142      1.40377  1_455   S
    C66    H49       1.08903      .   S
    C66    C141      1.40381      .   S
    C67    H50       1.08898      .   S
    C67    C142      1.40378      .   S
    C143   H51       1.00417      .   S
    C143   C64       1.40296      .   S
    C65    H48       1.08886      .   S
    C65    C140      1.40379      .   S
    C76    H4        1.08899      .   S
    C76    C80       1.40387      .   S
    C79    H7        1.08898      .   S
    C79    C83       1.40326      .   S
    C77    H5        1.08894      .   S
    C77    C81       1.40387      .   S
    C78    H6        1.08896      .   S
    C78    C82       1.40391      .   S
    C84    H8        1.08898      .   S
    C84    C80       1.40384      .   S
    C87    H11       1.08905      .   S
    C87    C83       1.40327      .   S
    C86    H10       1.08909      .   S
    C86    C82       1.40390      .   S
    C85    H9        1.08899      .   S
    C85    C81       1.40383      .   S
