# CIF file generated by openbabel 2.4.90, see http://openbabel.sf.net
data_I
_chemical_name_common ''
_cell_length_a 14.788
_cell_length_b 18.115
_cell_length_c 19.486
_cell_angle_alpha 90.005
_cell_angle_beta 89.99
_cell_angle_gamma 90.07
_space_group_name_H-M_alt 'P 1'
_space_group_name_Hall 'P 1'
loop_
    _symmetry_equiv_pos_as_xyz
    x,y,z
loop_
    _atom_site_label
    _atom_site_type_symbol
    _atom_site_fract_x
    _atom_site_fract_y
    _atom_site_fract_z
    _atom_site_occupancy
    Zr0     Zr   0.32442   0.25009   0.49972   1.000
    Zr1     Zr   0.32448   0.75013   0.49979   1.000
    Zr2     Zr   0.82445   0.25011   0.49978   1.000
    Zr3     Zr   0.82447   0.75011   0.49975   1.000
    Zr4     Zr   0.07444   0.24991   0.50017   1.000
    Zr5     Zr   0.07446   0.74993   0.50020   1.000
    Zr6     Zr   0.57442   0.24993   0.50021   1.000
    Zr7     Zr   0.57448   0.74991   0.50017   1.000
    Zr8     Zr   0.32427   0.49997   0.99970   1.000
    Zr9     Zr   0.32428   0.99997   0.99968   1.000
    Zr10    Zr   0.82428   0.49996   0.99969   1.000
    Zr11    Zr   0.82429   0.99997   0.99971   1.000
    Zr12    Zr   0.07429   0.00006   0.00024   1.000
    Zr13    Zr   0.07427   0.50005   0.00029   1.000
    Zr14    Zr   0.57429   0.00005   0.00028   1.000
    Zr15    Zr   0.57428   0.50006   0.00025   1.000
    N16     N    0.94941   0.87001   0.24642   1.000
    N17     N    0.44942   0.38003   0.74641   1.000
    N18     N    0.94932   0.37000   0.24632   1.000
    N19     N    0.19950   0.12001   0.25350   1.000
    N20     N    0.19935   0.63002   0.75354   1.000
    N21     N    0.69953   0.12000   0.25349   1.000
    N22     N    0.19956   0.62001   0.25355   1.000
    N23     N    0.44938   0.37000   0.24641   1.000
    N24     N    0.94947   0.88003   0.74541   1.000
    N25     N    0.44958   0.88002   0.74642   1.000
    N26     N    0.94955   0.38002   0.74643   1.000
    N27     N    0.69938   0.13002   0.75353   1.000
    N28     N    0.69954   0.62001   0.25351   1.000
    N29     N    0.44934   0.87001   0.24633   1.000
    N30     N    0.19938   0.13001   0.75347   1.000
    N31     N    0.69939   0.63002   0.75351   1.000
    C32     C    0.45059   0.31945   0.40854   1.000
    O33     O    0.40000   0.30135   0.43388   1.000
    O34     O    0.45018   0.33668   0.35397   1.000
    O35     O    0.50063   0.30119   0.43378   1.000
    C36     C    0.20035   0.18051   0.59133   1.000
    O37     O    0.25045   0.19876   0.56608   1.000
    O38     O    0.20002   0.16330   0.64591   1.000
    O39     O    0.14982   0.19864   0.56603   1.000
    C40     C    0.69873   0.17170   0.41538   1.000
    O41     O    0.64858   0.19211   0.43894   1.000
    O42     O    0.74921   0.19216   0.43896   1.000
    O43     O    0.69899   0.15400   0.36092   1.000
    C44     C    0.70034   0.18057   0.59139   1.000
    O45     O    0.70001   0.16334   0.64596   1.000
    O46     O    0.64981   0.19869   0.56608   1.000
    O47     O    0.75045   0.19882   0.56614   1.000
    C48     C    0.95050   0.31947   0.40856   1.000
    O49     O    0.95011   0.33669   0.35395   1.000
    O50     O    0.00057   0.30120   0.43379   1.000
    O51     O    0.89994   0.30137   0.43391   1.000
    C52     C    0.19943   0.33066   0.49524   1.000
    O53     O    0.16818   0.30378   0.49693   1.000
    O54     O    0.23067   0.30382   0.49681   1.000
    C55     C    0.19865   0.17169   0.41535   1.000
    O56     O    0.19893   0.15400   0.36089   1.000
    O57     O    0.14852   0.19210   0.43892   1.000
    O58     O    0.24914   0.19215   0.43892   1.000
    C59     C    0.94920   0.16938   0.50490   1.000
    O60     O    0.98054   0.19620   0.50321   1.000
    O61     O    0.91804   0.19625   0.50312   1.000
    C62     C    0.94893   0.32833   0.58458   1.000
    O63     O    0.94914   0.34602   0.63904   1.000
    O64     O    0.99936   0.30786   0.56101   1.000
    O65     O    0.89874   0.30792   0.56101   1.000
    C66     C    0.44918   0.16938   0.50493   1.000
    O67     O    0.48052   0.19620   0.50324   1.000
    O68     O    0.41802   0.19624   0.50311   1.000
    C69     C    0.44856   0.32833   0.58456   1.000
    O70     O    0.49907   0.30787   0.56099   1.000
    O71     O    0.44885   0.34603   0.63902   1.000
    O72     O    0.39845   0.30792   0.56099   1.000
    C73     C    0.69944   0.33066   0.49507   1.000
    O74     O    0.66818   0.30379   0.49687   1.000
    O75     O    0.73069   0.30384   0.49676   1.000
    C76     C    0.19910   0.91938   0.99510   1.000
    O77     O    0.23041   0.94622   0.99672   1.000
    O78     O    0.16792   0.94624   0.99686   1.000
    C79     C    0.19841   0.07831   0.91535   1.000
    O80     O    0.19874   0.09601   0.86088   1.000
    O81     O    0.14831   0.05790   0.93893   1.000
    O82     O    0.24893   0.05786   0.93891   1.000
    C83     C    0.20041   0.06950   0.09131   1.000
    O84     O    0.25046   0.05126   0.06605   1.000
    O85     O    0.20010   0.08671   0.14591   1.000
    O86     O    0.14983   0.05137   0.06603   1.000
    C87     C    0.69842   0.07831   0.91538   1.000
    O88     O    0.74894   0.05786   0.93894   1.000
    O89     O    0.69874   0.09601   0.86092   1.000
    O90     O    0.64831   0.05789   0.93897   1.000
    C91     C    0.69911   0.91938   0.99504   1.000
    O92     O    0.73042   0.94621   0.99670   1.000
    O93     O    0.66792   0.94624   0.99684   1.000
    C94     C    0.94827   0.92171   0.08459   1.000
    O95     O    0.89820   0.94213   0.06102   1.000
    O96     O    0.99882   0.94216   0.06100   1.000
    O97     O    0.94865   0.90401   0.13904   1.000
    C98     C    0.95029   0.93055   0.90859   1.000
    O99     O    0.95001   0.91333   0.85374   1.000
    O100    O    0.89974   0.94868   0.93388   1.000
    O101    O    0.00037   0.94878   0.93385   1.000
    C102    C    0.44819   0.92171   0.08459   1.000
    O103    O    0.49876   0.94215   0.06102   1.000
    O104    O    0.39814   0.94213   0.06102   1.000
    O105    O    0.44857   0.90401   0.13902   1.000
    C106    C    0.94935   0.08065   0.00145   1.000
    O107    O    0.91808   0.05379   0.00137   1.000
    O108    O    0.98058   0.05381   0.00151   1.000
    C109    C    0.45032   0.93054   0.90860   1.000
    O110    O    0.39975   0.94868   0.93388   1.000
    O111    O    0.50039   0.94877   0.93387   1.000
    O112    O    0.45006   0.91332   0.85401   1.000
    C113    C    0.70041   0.06947   0.09139   1.000
    O114    O    0.70011   0.08669   0.14592   1.000
    O115    O    0.64983   0.05134   0.06609   1.000
    O116    O    0.75046   0.05124   0.06613   1.000
    C117    C    0.44934   0.08064   0.00145   1.000
    O118    O    0.41807   0.05378   0.00136   1.000
    O119    O    0.48057   0.05381   0.00152   1.000
    C120    C    0.19835   0.57832   0.91537   1.000
    O121    O    0.14825   0.55790   0.93896   1.000
    O122    O    0.24888   0.55786   0.93894   1.000
    O123    O    0.19869   0.59602   0.86092   1.000
    C124    C    0.95031   0.43053   0.90860   1.000
    O125    O    0.89975   0.44867   0.93388   1.000
    O126    O    0.95005   0.41332   0.85401   1.000
    O127    O    0.00038   0.44877   0.93388   1.000
    C128    C    0.70039   0.56950   0.09125   1.000
    O129    O    0.70010   0.58671   0.14588   1.000
    O130    O    0.75044   0.55126   0.06604   1.000
    O131    O    0.64981   0.55136   0.06594   1.000
    C132    C    0.69842   0.57832   0.91536   1.000
    O133    O    0.74893   0.55786   0.93892   1.000
    O134    O    0.69875   0.59602   0.86089   1.000
    O135    O    0.64831   0.55790   0.93894   1.000
    C136    C    0.94817   0.42169   0.08459   1.000
    O137    O    0.89813   0.44212   0.06102   1.000
    O138    O    0.99874   0.44215   0.06102   1.000
    O139    O    0.94856   0.40400   0.13902   1.000
    C140    C    0.45030   0.43055   0.90858   1.000
    O141    O    0.39974   0.44869   0.93387   1.000
    O142    O    0.50038   0.44878   0.93384   1.000
    O143    O    0.45000   0.41333   0.85399   1.000
    C144    C    0.44822   0.42170   0.08458   1.000
    O145    O    0.49878   0.44215   0.06100   1.000
    O146    O    0.44860   0.40400   0.13903   1.000
    O147    O    0.39815   0.44212   0.06101   1.000
    C148    C    0.44933   0.58065   0.00145   1.000
    O149    O    0.41806   0.55379   0.00137   1.000
    O150    O    0.48056   0.55382   0.00151   1.000
    C151    C    0.94934   0.58065   0.00145   1.000
    O152    O    0.91807   0.55379   0.00137   1.000
    O153    O    0.98056   0.55381   0.00152   1.000
    C154    C    0.20040   0.56948   0.09138   1.000
    O155    O    0.25045   0.55125   0.06612   1.000
    O156    O    0.20011   0.58670   0.14596   1.000
    O157    O    0.14981   0.55135   0.06610   1.000
    C158    C    0.19909   0.41937   0.99506   1.000
    O159    O    0.23041   0.44621   0.99672   1.000
    O160    O    0.16791   0.44623   0.99687   1.000
    C161    C    0.69910   0.41937   0.99511   1.000
    O162    O    0.73041   0.44621   0.99674   1.000
    O163    O    0.66792   0.44623   0.99688   1.000
    C164    C    0.20035   0.68058   0.59137   1.000
    O165    O    0.25047   0.69883   0.56614   1.000
    O166    O    0.14983   0.69869   0.56606   1.000
    O167    O    0.20001   0.66335   0.64595   1.000
    C168    C    0.69879   0.67170   0.41536   1.000
    O169    O    0.74926   0.69216   0.43893   1.000
    O170    O    0.64864   0.69210   0.43894   1.000
    O171    O    0.69904   0.65400   0.36090   1.000
    C172    C    0.94871   0.82833   0.58458   1.000
    O173    O    0.99920   0.80787   0.56101   1.000
    O174    O    0.89858   0.80792   0.56100   1.000
    O175    O    0.94897   0.84603   0.63878   1.000
    C176    C    0.70037   0.68053   0.59134   1.000
    O177    O    0.75048   0.69879   0.56610   1.000
    O178    O    0.64985   0.69865   0.56604   1.000
    O179    O    0.70004   0.66331   0.64593   1.000
    C180    C    0.95058   0.81947   0.40858   1.000
    O181    O    0.95019   0.83670   0.35400   1.000
    O182    O    0.90001   0.80137   0.43391   1.000
    O183    O    0.00063   0.80120   0.43380   1.000
    C184    C    0.94921   0.66938   0.50487   1.000
    O185    O    0.98055   0.69621   0.50318   1.000
    O186    O    0.91806   0.69625   0.50307   1.000
    C187    C    0.19945   0.83066   0.49501   1.000
    O188    O    0.16820   0.80379   0.49683   1.000
    O189    O    0.23071   0.80385   0.49673   1.000
    C190    C    0.45052   0.81948   0.40859   1.000
    O191    O    0.50060   0.80121   0.43380   1.000
    O192    O    0.45013   0.83671   0.35398   1.000
    O193    O    0.39996   0.80139   0.43393   1.000
    C194    C    0.44921   0.66938   0.50487   1.000
    O195    O    0.48056   0.69620   0.50320   1.000
    O196    O    0.41806   0.69626   0.50311   1.000
    C197    C    0.44902   0.82833   0.58459   1.000
    O198    O    0.44921   0.84603   0.63904   1.000
    O199    O    0.39881   0.80792   0.56101   1.000
    O200    O    0.49944   0.80786   0.56102   1.000
    C201    C    0.19886   0.67171   0.41540   1.000
    O202    O    0.24932   0.69217   0.43897   1.000
    O203    O    0.19909   0.65401   0.36094   1.000
    O204    O    0.14869   0.69212   0.43898   1.000
    C205    C    0.69946   0.83066   0.49511   1.000
    O206    O    0.66821   0.80378   0.49686   1.000
    O207    O    0.73071   0.80383   0.49676   1.000
loop_
    _geom_bond_atom_site_label_1
    _geom_bond_atom_site_label_2
    _geom_bond_distance
    _geom_bond_site_symmetry_2
    _ccdc_geom_bond_type
    C32    O33       0.95407      .   S
    Zr0    O33       1.93777      .   S
    C32    O34       1.10830      .   S
    N23    O34       2.18121      .   S
    C32    O35       0.94848      .   S
    Zr6    O35       1.93182      .   S
    C36    O37       0.94845      .   S
    Zr0    O37       1.93137      .   S
    C36    O38       1.10834      .   S
    N30    O38       2.18114      .   S
    C36    O39       0.95395      .   S
    Zr4    O39       1.93788      .   S
    C40    O41       0.94767      .   S
    Zr6    O41       1.93062      .   S
    C40    O42       0.95150      .   S
    Zr2    O42       1.93446      .   S
    C40    O43       1.10859      .   S
    N21    O43       2.18193      .   S
    C44    O45       1.10819      .   S
    N27    O45       2.18153      .   S
    C44    O46       0.95398      .   S
    Zr6    O46       1.93785      .   S
    C44    O47       0.94851      .   S
    Zr2    O47       1.93145      .   S
    C48    O49       1.10904      .   S
    N18    O49       2.18240      .   S
    C48    O50       0.94866  1_655   S
    Zr4    O50       1.93211      .   S
    C48    O51       0.95382      .   S
    Zr2    O51       1.93724      .   S
    C52    O53       0.67170      .   S
    Zr4    O53       1.69541      .   S
    C52    O54       0.67177      .   S
    Zr0    O54       1.69588      .   S
    C55    O56       1.10850      .   S
    N19    O56       2.18125      .   S
    C55    O57       0.94741      .   S
    Zr4    O57       1.92965      .   S
    C55    O58       0.95146      .   S
    Zr0    O58       1.93431      .   S
    C59    O60       0.67183      .   S
    Zr4    O60       1.69562  1_455   S
    C59    O61       0.67158      .   S
    Zr2    O61       1.69559      .   S
    C62    O63       1.10849      .   S
    N26    O63       2.18126      .   S
    C62    O64       0.95131      .   S
    Zr4    O64       1.93457  1_455   S
    C62    O65       0.94764      .   S
    Zr2    O65       1.92978      .   S
    C66    O67       0.67191      .   S
    Zr6    O67       1.69582      .   S
    C66    O68       0.67157      .   S
    Zr0    O68       1.69563      .   S
    C69    O70       0.95231      .   S
    Zr6    O70       1.93597      .   S
    C69    O71       1.10855      .   S
    N17    O71       2.18128      .   S
    C69    O72       0.94675      .   S
    Zr0    O72       1.92837      .   S
    C73    O74       0.67174      .   S
    Zr6    O74       1.69559      .   S
    C73    O75       0.67180      .   S
    Zr2    O75       1.69606      .   S
    C76    O77       0.67178      .   S
    Zr9    O77       1.69561      .   S
    C76    O78       0.67161      .   S
    Zr12   O78       1.69561  1_544   S
    C79    O80       1.10872      .   S
    N30    O80       2.18177      .   S
    C79    O81       0.94669      .   S
    Zr12   O81       1.92866  1_554   S
    C79    O82       0.95234      .   S
    Zr9    O82       1.93574  1_565   S
    C83    O84       0.94853      .   S
    Zr9    O84       1.93120  1_566   S
    C83    O85       1.10861      .   S
    N19    O85       2.18156      .   S
    C83    O86       0.95374      .   S
    Zr12   O86       1.93725      .   S
    C87    O88       0.95236      .   S
    Zr11   O88       1.93579  1_565   S
    C87    O89       1.10857      .   S
    N27    O89       2.18144      .   S
    C87    O90       0.94673      .   S
    Zr14   O90       1.92880  1_554   S
    C91    O92       0.67179      .   S
    Zr11   O92       1.69565      .   S
    C91    O93       0.67162      .   S
    Zr14   O93       1.69566  1_544   S
    C94    O95       0.94694      .   S
    Zr11   O95       1.92950  1_556   S
    C94    O96       0.95208      .   S
    Zr12   O96       1.93508  1_445   S
    C94    O97       1.10854      .   S
    N16    O97       2.18129      .   S
    C98    O99       1.11333      .   S
    N24    O99       2.19542      .   S
    C98    O100      0.95398      .   S
    Zr11   O100      1.93784      .   S
    C98    O101      0.94830  1_655   S
    Zr12   O101      1.93114  1_544   S
    C102   O103      0.95226      .   S
    Zr14   O103      1.93527  1_545   S
    C102   O104      0.94685      .   S
    Zr9    O104      1.92941  1_556   S
    C102   O105      1.10807      .   S
    N29    O105      2.17995      .   S
    C106   O107      0.67082      .   S
    Zr11   O107      1.69461  1_566   S
    C106   O108      0.67092      .   S
    Zr12   O108      1.69486  1_455   S
    C109   O110      0.95397      .   S
    Zr9    O110      1.93774      .   S
    C109   O111      0.94838      .   S
    Zr14   O111      1.93123  1_544   S
    C109   O112      1.10848      .   S
    N25    O112      2.18164      .   S
    C113   O114      1.10744      .   S
    N21    O114      2.18124      .   S
    C113   O115      0.95385      .   S
    Zr14   O115      1.93737      .   S
    C113   O116      0.94851      .   S
    Zr11   O116      1.93166  1_566   S
    C117   O118      0.67079      .   S
    Zr9    O118      1.69457  1_566   S
    C117   O119      0.67097      .   S
    Zr14   O119      1.69500      .   S
    C120   O121      0.94660      .   S
    Zr13   O121      1.92879  1_554   S
    C120   O122      0.95253      .   S
    Zr8    O122      1.93607      .   S
    C120   O123      1.10850      .   S
    N20    O123      2.18134      .   S
    C124   O125      0.95397      .   S
    Zr10   O125      1.93784      .   S
    C124   O126      1.10841      .   S
    N26    O126      2.18145      .   S
    C124   O127      0.94833  1_655   S
    Zr13   O127      1.93131  1_554   S
    C128   O129      1.10931      .   S
    N28    O129      2.18221      .   S
    C128   O130      0.94807      .   S
    Zr10   O130      1.93104  1_556   S
    C128   O131      0.95402      .   S
    Zr15   O131      1.93570      .   S
    C132   O133      0.95235      .   S
    Zr10   O133      1.93581      .   S
    C132   O134      1.10876      .   S
    N31    O134      2.18129      .   S
    C132   O135      0.94674      .   S
    Zr15   O135      1.92878  1_554   S
    C136   O137      0.94678      .   S
    Zr10   O137      1.92927  1_556   S
    C136   O138      0.95221      .   S
    Zr13   O138      1.93526  1_455   S
    C136   O139      1.10803      .   S
    N18    O139      2.17981      .   S
    C140   O141      0.95412      .   S
    Zr8    O141      1.93799      .   S
    C140   O142      0.94830      .   S
    Zr15   O142      1.93126  1_554   S
    C140   O143      1.10840      .   S
    N17    O143      2.18146      .   S
    C144   O145      0.95225      .   S
    Zr15   O145      1.93528      .   S
    C144   O146      1.10850      .   S
    N23    O146      2.18119      .   S
    C144   O147      0.94688      .   S
    Zr8    O147      1.92943  1_556   S
    C148   O149      0.67085      .   S
    Zr8    O149      1.69473  1_556   S
    C148   O150      0.67093      .   S
    Zr15   O150      1.69498      .   S
    C151   O152      0.67085      .   S
    Zr10   O152      1.69470  1_556   S
    C151   O153      0.67093      .   S
    Zr13   O153      1.69484  1_455   S
    C154   O155      0.94852      .   S
    Zr8    O155      1.93169  1_556   S
    C154   O156      1.10842      .   S
    N22    O156      2.18146      .   S
    C154   O157      0.95383      .   S
    Zr13   O157      1.93736      .   S
    C158   O159      0.67179      .   S
    Zr8    O159      1.69562      .   S
    C158   O160      0.67168      .   S
    Zr13   O160      1.69576  1_554   S
    C161   O162      0.67178      .   S
    Zr10   O162      1.69560      .   S
    C161   O163      0.67168      .   S
    Zr15   O163      1.69574  1_554   S
    C164   O165      0.94849      .   S
    Zr1    O165      1.93141      .   S
    C164   O166      0.95389      .   S
    Zr5    O166      1.93748      .   S
    C164   O167      1.10853      .   S
    N20    O167      2.18159      .   S
    C168   O169      0.95123      .   S
    Zr3    O169      1.93407      .   S
    C168   O170      0.94770      .   S
    Zr7    O170      1.93002      .   S
    C168   O171      1.10854      .   S
    N28    O171      2.18138      .   S
    C172   O173      0.95198      .   S
    Zr5    O173      1.93553  1_455   S
    C172   O174      0.94697      .   S
    Zr3    O174      1.92875      .   S
    C172   O175      1.10379      .   S
    N24    O175      2.16710      .   S
    C176   O177      0.94850      .   S
    Zr3    O177      1.93139      .   S
    C176   O178      0.95386      .   S
    Zr7    O178      1.93775      .   S
    C176   O179      1.10843      .   S
    N31    O179      2.18144      .   S
    C180   O181      1.10841      .   S
    N16    O181      2.18143      .   S
    C180   O182      0.95388      .   S
    Zr3    O182      1.93737      .   S
    C180   O183      0.94846  1_655   S
    Zr5    O183      1.93183      .   S
    C184   O185      0.67190      .   S
    Zr5    O185      1.69571  1_455   S
    C184   O186      0.67154      .   S
    Zr3    O186      1.69556      .   S
    C187   O188      0.67171      .   S
    Zr5    O188      1.69554      .   S
    C187   O189      0.67182      .   S
    Zr1    O189      1.69608      .   S
    C190   O191      0.94869      .   S
    Zr7    O191      1.93216      .   S
    C190   O192      1.10886      .   S
    N29    O192      2.18282      .   S
    C190   O193      0.95372      .   S
    Zr1    O193      1.93708      .   S
    C194   O195      0.67191      .   S
    Zr7    O195      1.69582      .   S
    C194   O196      0.67155      .   S
    Zr1    O196      1.69555      .   S
    C197   O198      1.10842      .   S
    N25    O198      2.18102      .   S
    C197   O199      0.94782      .   S
    Zr1    O199      1.92990      .   S
    C197   O200      0.95120      .   S
    Zr7    O200      1.93438      .   S
    C201   O202      0.95107      .   S
    Zr1    O202      1.93391      .   S
    C201   O203      1.10853      .   S
    N22    O203      2.18134      .   S
    C201   O204      0.94803      .   S
    Zr5    O204      1.93061      .   S
    C205   O206      0.67166      .   S
    Zr7    O206      1.69537      .   S
    C205   O207      0.67179      .   S
    Zr3    O207      1.69593      .   S
