# CIF file generated by openbabel 2.4.90, see http://openbabel.sf.net
data_I
_chemical_name_common ''
_cell_length_a 18.488
_cell_length_b 18.475
_cell_length_c 18.451
_cell_angle_alpha 59.888
_cell_angle_beta 59.923
_cell_angle_gamma 59.966
_space_group_name_H-M_alt 'P 1'
_space_group_name_Hall 'P 1'
loop_
    _symmetry_equiv_pos_as_xyz
    x,y,z
loop_
    _atom_site_label
    _atom_site_type_symbol
    _atom_site_fract_x
    _atom_site_fract_y
    _atom_site_fract_z
    _atom_site_occupancy
    Lv0     Lv   0.90509   0.90506   0.40737   1.000
    Lv1     Lv   0.40501   0.90527   0.40504   1.000
    Lv2     Lv   0.90504   0.40734   0.90512   1.000
    Lv3     Lv   0.09447   0.59501   0.59494   1.000
    Lv4     Lv   0.59497   0.59494   0.09480   1.000
    Lv5     Lv   0.90556   0.40494   0.40502   1.000
    Lv6     Lv   0.40739   0.90497   0.90501   1.000
    Lv7     Lv   0.09499   0.59262   0.09484   1.000
    Lv8     Lv   0.09494   0.09490   0.59251   1.000
    Lv9     Lv   0.59501   0.09469   0.59493   1.000
    Lv10    Lv   0.40506   0.40502   0.90512   1.000
    Lv11    Lv   0.59263   0.09499   0.09493   1.000
