# CIF file generated by openbabel 2.4.90, see http://openbabel.sf.net
data_I
_chemical_name_common ''
_cell_length_a 18.488
_cell_length_b 18.475
_cell_length_c 18.451
_cell_angle_alpha 59.888
_cell_angle_beta 59.923
_cell_angle_gamma 59.966
_space_group_name_H-M_alt 'P 1'
_space_group_name_Hall 'P 1'
loop_
    _symmetry_equiv_pos_as_xyz
    x,y,z
loop_
    _atom_site_label
    _atom_site_type_symbol
    _atom_site_fract_x
    _atom_site_fract_y
    _atom_site_fract_z
    _atom_site_occupancy
    C0      C    0.29389   0.01611   0.29430   1.000
    C1      C    0.51624   0.79450   0.51567   1.000
    C2      C    0.29405   0.29416   0.01587   1.000
    C3      C    0.51613   0.51582   0.79455   1.000
    C4      C    0.01639   0.29390   0.29426   1.000
    C5      C    0.79472   0.51601   0.51575   1.000
    C6      C    0.01606   0.01598   0.29582   1.000
    C7      C    0.79416   0.79417   0.51702   1.000
    C8      C    0.29567   0.01609   0.01581   1.000
    C9      C    0.51727   0.79393   0.79426   1.000
    C10     C    0.01619   0.29560   0.01587   1.000
    C11     C    0.79395   0.51720   0.79437   1.000
    C12     C    0.98363   0.70605   0.70571   1.000
    C13     C    0.20530   0.48395   0.48422   1.000
    C14     C    0.70598   0.70580   0.98410   1.000
    C15     C    0.48390   0.48414   0.20541   1.000
    C16     C    0.70613   0.98386   0.70567   1.000
    C17     C    0.48378   0.20546   0.48429   1.000
    C18     C    0.98397   0.98398   0.70415   1.000
    C19     C    0.20586   0.20579   0.48295   1.000
    C20     C    0.98383   0.70436   0.98410   1.000
    C21     C    0.20607   0.48275   0.20559   1.000
    C22     C    0.70436   0.98388   0.98416   1.000
    C23     C    0.48276   0.20603   0.20571   1.000
