# CIF file generated by openbabel 2.4.90, see http://openbabel.sf.net
data_I
_chemical_name_common ''
_cell_length_a 10.246
_cell_length_b 21.667
_cell_length_c 12.269
_cell_angle_alpha 90.126
_cell_angle_beta 90.077
_cell_angle_gamma 93.863
_space_group_name_H-M_alt 'P 1'
_space_group_name_Hall 'P 1'
loop_
    _symmetry_equiv_pos_as_xyz
    x,y,z
loop_
    _atom_site_label
    _atom_site_type_symbol
    _atom_site_fract_x
    _atom_site_fract_y
    _atom_site_fract_z
    _atom_site_occupancy
    P0      P    0.22550   0.41569   0.47724   1.000
    P1      P    0.22612   0.91618   0.47814   1.000
    P2      P    0.72540   0.41571   0.47726   1.000
    P3      P    0.72703   0.91617   0.47784   1.000
    P4      P    0.27367   0.08396   0.97687   1.000
    P5      P    0.27320   0.58327   0.97779   1.000
    P6      P    0.77362   0.08402   0.97740   1.000
    P7      P    0.77319   0.58327   0.97777   1.000
    P8      P    0.27310   0.08323   0.52147   1.000
    P9      P    0.27453   0.58397   0.52271   1.000
    P10     P    0.77218   0.08320   0.52186   1.000
    P11     P    0.77463   0.58393   0.52266   1.000
    P12     P    0.22682   0.41672   0.02218   1.000
    P13     P    0.22662   0.91603   0.02266   1.000
    P14     P    0.72682   0.41675   0.02222   1.000
    P15     P    0.72661   0.91602   0.02251   1.000
    C16     C    0.24590   0.28048   0.49800   1.000
    C17     C    0.24331   0.78074   0.49702   1.000
    C18     C    0.74478   0.28043   0.49803   1.000
    C19     C    0.74542   0.78079   0.49641   1.000
    C20     C    0.23561   0.33647   0.49420   1.000
    C21     C    0.23352   0.83675   0.49355   1.000
    C22     C    0.73509   0.33646   0.49427   1.000
    C23     C    0.73606   0.83682   0.49283   1.000
    C24     C    0.25553   0.21944   0.99751   1.000
    C25     C    0.25475   0.71881   0.99688   1.000
    C26     C    0.75554   0.21947   0.99820   1.000
    C27     C    0.75471   0.71881   0.99670   1.000
    C28     C    0.26498   0.16339   0.99304   1.000
    C29     C    0.26423   0.66275   0.99288   1.000
    C30     C    0.76497   0.16342   0.99390   1.000
    C31     C    0.76421   0.66275   0.99283   1.000
    C32     C    0.25648   0.21876   0.50231   1.000
    C33     C    0.25411   0.71908   0.50140   1.000
    C34     C    0.75483   0.21868   0.50232   1.000
    C35     C    0.75556   0.71909   0.50099   1.000
    C36     C    0.26599   0.16271   0.50570   1.000
    C37     C    0.26454   0.66312   0.50535   1.000
    C38     C    0.76393   0.16260   0.50576   1.000
    C39     C    0.76516   0.66308   0.50516   1.000
    C40     C    0.24536   0.28119   0.00271   1.000
    C41     C    0.24465   0.78057   0.00185   1.000
    C42     C    0.74538   0.28122   0.00316   1.000
    C43     C    0.74461   0.78057   0.00167   1.000
    C44     C    0.23581   0.33724   0.00000   1.000
    C45     C    0.23528   0.83663   0.00000   1.000
    C46     C    0.73581   0.33727   0.00000   1.000
    C47     C    0.73523   0.83663   0.00000   1.000
    O48     O    0.10114   0.43368   0.53339   1.000
    O49     O    0.10226   0.93467   0.53455   1.000
    O50     O    0.60113   0.43380   0.53342   1.000
    O51     O    0.60218   0.93369   0.53380   1.000
    O52     O    0.21804   0.42395   0.35139   1.000
    O53     O    0.22146   0.92560   0.35243   1.000
    O54     O    0.71799   0.42396   0.35141   1.000
    O55     O    0.72222   0.92579   0.35217   1.000
    O56     O    0.34995   0.44772   0.52316   1.000
    O57     O    0.35084   0.94676   0.52642   1.000
    O58     O    0.84996   0.44763   0.52318   1.000
    O59     O    0.85095   0.94733   0.52668   1.000
    O60     O    0.39814   0.06605   0.03315   1.000
    O61     O    0.39808   0.56576   0.03398   1.000
    O62     O    0.89818   0.06601   0.03337   1.000
    O63     O    0.89807   0.56576   0.03396   1.000
    O64     O    0.27920   0.07456   0.85111   1.000
    O65     O    0.27789   0.57323   0.85218   1.000
    O66     O    0.77896   0.07480   0.85158   1.000
    O67     O    0.77788   0.57323   0.85216   1.000
    O68     O    0.14917   0.05278   0.02380   1.000
    O69     O    0.14932   0.55217   0.02626   1.000
    O70     O    0.64916   0.05275   0.02423   1.000
    O71     O    0.64931   0.55217   0.02624   1.000
    O72     O    0.39630   0.06430   0.46460   1.000
    O73     O    0.39883   0.56590   0.46660   1.000
    O74     O    0.89576   0.06481   0.46484   1.000
    O75     O    0.89886   0.56577   0.46658   1.000
    O76     O    0.27929   0.07415   0.64722   1.000
    O77     O    0.28193   0.57592   0.64860   1.000
    O78     O    0.77821   0.07436   0.64766   1.000
    O79     O    0.78197   0.57591   0.64856   1.000
    O80     O    0.14764   0.05275   0.47420   1.000
    O81     O    0.14998   0.55201   0.47688   1.000
    O82     O    0.64737   0.05200   0.47486   1.000
    O83     O    0.64997   0.55206   0.47686   1.000
    O84     O    0.10193   0.43425   0.96601   1.000
    O85     O    0.10215   0.93405   0.96657   1.000
    O86     O    0.60193   0.43425   0.96603   1.000
    O87     O    0.60213   0.93409   0.96649   1.000
    O88     O    0.22211   0.42674   0.14700   1.000
    O89     O    0.22111   0.92524   0.14846   1.000
    O90     O    0.72212   0.42678   0.14783   1.000
    O91     O    0.72111   0.92519   0.14830   1.000
    O92     O    0.35070   0.44784   0.97375   1.000
    O93     O    0.35113   0.94729   0.97500   1.000
    O94     O    0.85069   0.44785   0.97375   1.000
    O95     O    0.85113   0.94729   0.97581   1.000
loop_
    _geom_bond_atom_site_label_1
    _geom_bond_atom_site_label_2
    _geom_bond_distance
    _geom_bond_site_symmetry_2
    _ccdc_geom_bond_type
    C44    C40       1.22545      .   S
    C44    P12       1.75135      .   S
    C45    C41       1.22509      .   S
    C45    P13       1.75021      .   S
    C46    C42       1.22570      .   S
    C46    P14       1.75143      .   S
    C47    C43       1.22507      .   S
    C47    P15       1.74982      .   S
    C43    C27       1.35023  1_554   S
    C41    C25       1.35024  1_554   S
    C40    C24       1.35030  1_554   S
    C42    C26       1.35019  1_554   S
    P12    O88       1.54755      .   S
    P12    O84       1.52341  1_554   S
    P12    O92       1.51900  1_554   S
    P14    O90       1.55717      .   S
    P14    O86       1.52337  1_554   S
    P14    O94       1.51898  1_554   S
    P15    O91       1.55720      .   S
    P15    O87       1.52257  1_554   S
    P15    O95       1.51738  1_554   S
    P13    O89       1.55746      .   S
    P13    O85       1.52269  1_554   S
    P13    O93       1.52169  1_554   S
    O68    P4        1.51751  1_554   S
    O70    P6        1.51742  1_554   S
    O71    P7        1.51897  1_554   S
    O69    P5        1.51898  1_554   S
    O60    P4        1.52290  1_554   S
    O62    P6        1.52268  1_554   S
    O63    P7        1.52337  1_554   S
    O61    P5        1.52339  1_554   S
    O52    P0        1.55715      .   S
    O54    P2        1.55711      .   S
    O55    P3        1.55746      .   S
    O53    P1        1.55732      .   S
    O72    P8        1.52296      .   S
    O74    P10       1.52329      .   S
    O75    P11       1.52224      .   S
    O73    P9        1.52243      .   S
    O80    P8        1.51883      .   S
    O82    P10       1.51820      .   S
    O83    P11       1.51706      .   S
    O81    P9        1.51707      .   S
    P0     C20       1.73946      .   S
    P0     O56       1.51722      .   S
    P0     O48       1.52261      .   S
    P2     C22       1.73947      .   S
    P2     O58       1.51725      .   S
    P2     O50       1.52256      .   S
    P3     C23       1.73816      .   S
    P3     O59       1.51914      .   S
    P3     O51       1.52261      .   S
    P1     C21       1.73838      .   S
    P1     O57       1.51827      .   S
    P1     O49       1.52302      .   S
    C23    C19       1.22518      .   S
    C21    C17       1.22532      .   S
    C20    C16       1.22569      .   S
    C22    C18       1.22569      .   S
    C19    C35       1.34910      .   S
    C17    C33       1.34926      .   S
    C16    C32       1.35003      .   S
    C18    C34       1.34997      .   S
    C35    C39       1.22520      .   S
    C33    C37       1.22534      .   S
    C32    C36       1.22572      .   S
    C34    C38       1.22570      .   S
    C39    P11       1.73791      .   S
    C37    P9        1.73833      .   S
    C36    P8        1.73978      .   S
    C38    P10       1.73975      .   S
    P8     O76       1.55747      .   S
    P10    O78       1.55737      .   S
    P11    O79       1.55707      .   S
    P9     O77       1.55706      .   S
    O64    P4        1.55749      .   S
    O66    P6        1.55762      .   S
    O67    P7        1.55719      .   S
    O65    P5        1.55717      .   S
    P4     C28       1.74018      .   S
    P6     C30       1.73987      .   S
    P7     C31       1.74021      .   S
    P5     C29       1.74022      .   S
    C31    C27       1.22587      .   S
    C29    C25       1.22590      .   S
    C28    C24       1.22592      .   S
    C30    C26       1.22584      .   S
