# CIF file generated by openbabel 2.4.90, see http://openbabel.sf.net
data_I
_chemical_name_common ''
_cell_length_a 10.246
_cell_length_b 21.667
_cell_length_c 12.269
_cell_angle_alpha 90.126
_cell_angle_beta 90.077
_cell_angle_gamma 93.863
_space_group_name_H-M_alt 'P 1'
_space_group_name_Hall 'P 1'
loop_
    _symmetry_equiv_pos_as_xyz
    x,y,z
loop_
    _atom_site_label
    _atom_site_type_symbol
    _atom_site_fract_x
    _atom_site_fract_y
    _atom_site_fract_z
    _atom_site_occupancy
    Al0     Al   0.00005   0.49979   0.50005   1.000
    Al1     Al   0.49933   0.99910   0.50001   1.000
    Al2     Al   0.50001   0.49988   0.50000   1.000
    Al3     Al   0.00016   0.00003   0.99990   1.000
    Al4     Al   0.00002   0.50000   0.00000   1.000
    Al5     Al   0.50015   0.00004   0.30000   1.000
    Al6     Al   0.50000   0.50000   0.90000   1.000
    Al7     Al   0.38234   0.04691   0.74954   1.000
    Al8     Al   0.38277   0.54701   0.75021   1.000
    Al9     Al   0.88212   0.04755   0.74985   1.000
    Al10    Al   0.88277   0.54700   0.75020   1.000
    Al11    Al   0.11724   0.45294   0.24979   1.000
    Al12    Al   0.11775   0.95244   0.25013   1.000
    Al13    Al   0.61722   0.45296   0.24981   1.000
    Al14    Al   0.61798   0.95244   0.25006   1.000
    Al15    Al   0.99942   0.99992   0.49999   1.000
    F16     F    0.49439   0.02134   0.65249   1.000
    F17     F    0.49394   0.52012   0.65280   1.000
    F18     F    0.99483   0.02373   0.65220   1.000
    F19     F    0.99395   0.52010   0.65286   1.000
    F20     F    0.00508   0.47745   0.15231   1.000
    F21     F    0.00605   0.97871   0.15270   1.000
    F22     F    0.50507   0.47745   0.15231   1.000
    F23     F    0.50607   0.97870   0.15271   1.000
    F24     F    0.00608   0.47984   0.34711   1.000
    F25     F    0.00502   0.97629   0.34775   1.000
    F26     F    0.50605   0.47986   0.34712   1.000
    F27     F    0.50509   0.97618   0.34764   1.000
    F28     F    0.49418   0.02130   0.84731   1.000
    F29     F    0.49493   0.52256   0.84769   1.000
    F30     F    0.99397   0.02131   0.84722   1.000
    F31     F    0.99493   0.52256   0.84769   1.000
loop_
    _geom_bond_atom_site_label_1
    _geom_bond_atom_site_label_2
    _geom_bond_distance
    _geom_bond_site_symmetry_2
    _ccdc_geom_bond_type
    F22    Al13      1.76475      .   S
    F20    Al11      1.76479      .   S
    F21    Al12      1.77481      .   S
    F23    Al5       1.86639  1_565   S
    Al11   F24       1.77560      .   S
    Al13   F26       1.77554      .   S
    Al14   Al5       1.75040  1_565   S
    Al12   F25       1.76563      .   S
    F27    Al5       0.78509  1_565   S
    F18    Al9       1.76542      .   S
    F16    Al7       1.76891      .   S
    F17    Al8       1.77635      .   S
    F19    Al10      1.77586      .   S
    Al7    F28       1.77329      .   S
    Al9    F30       1.77511      .   S
    Al10   F31       1.76433      .   S
    F29    Al6       0.81123      .   S
