# CIF file generated by openbabel 2.4.90, see http://openbabel.sf.net
data_I
_chemical_name_common ''
_cell_length_a 10.246
_cell_length_b 21.667
_cell_length_c 12.269
_cell_angle_alpha 90.126
_cell_angle_beta 90.077
_cell_angle_gamma 93.863
_space_group_name_H-M_alt 'P 1'
_space_group_name_Hall 'P 1'
loop_
    _symmetry_equiv_pos_as_xyz
    x,y,z
loop_
    _atom_site_label
    _atom_site_type_symbol
    _atom_site_fract_x
    _atom_site_fract_y
    _atom_site_fract_z
    _atom_site_occupancy
    Zr0     Zr   0.99942   0.99992   0.49999   1.000
    Zr1     Zr   0.00005   0.49979   0.50005   1.000
    Zr2     Zr   0.49933   0.99910   0.50001   1.000
    Zr3     Zr   0.50001   0.49988   0.50000   1.000
    Zr4     Zr   0.00016   0.00003   0.99990   1.000
    Zr5     Zr   0.00002   0.50000   0.00000   1.000
    Zr6     Zr   0.50015   0.00004   0.30000   1.000
    Zr7     Zr   0.50000   0.50000   0.90000   1.000
    Zr8     Zr   0.38234   0.04691   0.74954   1.000
    Zr9     Zr   0.38277   0.54701   0.75021   1.000
    Zr10    Zr   0.88212   0.04755   0.74985   1.000
    Zr11    Zr   0.88277   0.54700   0.75020   1.000
    Zr12    Zr   0.11724   0.45294   0.24979   1.000
    Zr13    Zr   0.11775   0.95244   0.25013   1.000
    Zr14    Zr   0.61722   0.45296   0.24981   1.000
    Zr15    Zr   0.61798   0.95244   0.25006   1.000
    Zr16    Zr   0.49439   0.02134   0.65249   1.000
    Zr17    Zr   0.49394   0.52012   0.65280   1.000
    Zr18    Zr   0.99483   0.02373   0.65220   1.000
    Zr19    Zr   0.99395   0.52010   0.65286   1.000
    Zr20    Zr   0.00508   0.47745   0.15231   1.000
    Zr21    Zr   0.00605   0.97871   0.15270   1.000
    Zr22    Zr   0.50507   0.47745   0.15231   1.000
    Zr23    Zr   0.50607   0.97870   0.15271   1.000
    Zr24    Zr   0.00608   0.47984   0.34711   1.000
    Zr25    Zr   0.00502   0.97629   0.34775   1.000
    Zr26    Zr   0.50605   0.47986   0.34712   1.000
    Zr27    Zr   0.50509   0.97618   0.34764   1.000
    Zr28    Zr   0.49418   0.02130   0.84731   1.000
    Zr29    Zr   0.49493   0.52256   0.84769   1.000
    Zr30    Zr   0.99397   0.02131   0.84722   1.000
    Zr31    Zr   0.99493   0.52256   0.84769   1.000
    O32     O    0.56114   0.46520   0.20106   1.000
    O33     O    0.06116   0.46519   0.20105   1.000
    O34     O    0.06190   0.96557   0.20141   1.000
    O35     O    0.50311   0.98937   0.22635   1.000
    O36     O    0.06166   0.46639   0.29845   1.000
    O37     O    0.56163   0.46641   0.29847   1.000
    O38     O    0.55907   0.97624   0.27503   1.000
    O39     O    0.06139   0.96436   0.29894   1.000
    O40     O    0.50262   0.98811   0.32382   1.000
    O41     O    0.93847   0.03564   0.70103   1.000
    O42     O    0.43837   0.03412   0.70102   1.000
    O43     O    0.43835   0.53356   0.70150   1.000
    O44     O    0.93836   0.53355   0.70153   1.000
    O45     O    0.43826   0.03410   0.79842   1.000
    O46     O    0.93804   0.03443   0.79853   1.000
    O47     O    0.93885   0.53478   0.79895   1.000
    O48     O    0.49746   0.51128   0.87384   1.000
    N49     N    0.74889   0.24947   0.49957   1.000
    O50     O    0.64973   0.35815   0.50814   1.000
    O51     O    0.66112   0.13751   0.49350   1.000
    O52     O    0.70825   0.34397   0.40009   1.000
    O53     O    0.78952   0.15521   0.59916   1.000
    O54     O    0.84824   0.14092   0.49099   1.000
    O55     O    0.83694   0.36159   0.50559   1.000
    N56     N    0.25012   0.75006   0.50030   1.000
    O57     O    0.15048   0.85868   0.50879   1.000
    O58     O    0.16257   0.63798   0.49438   1.000
    O59     O    0.29123   0.65576   0.59985   1.000
    O60     O    0.34977   0.64147   0.49180   1.000
    O61     O    0.33760   0.86149   0.50676   1.000
    O62     O    0.20986   0.84454   0.40079   1.000
    N63     N    0.75083   0.75004   0.50005   1.000
    O64     O    0.83801   0.86183   0.50669   1.000
    O65     O    0.71047   0.84457   0.40058   1.000
    O66     O    0.85014   0.64141   0.49168   1.000
    O67     O    0.79160   0.65575   0.59971   1.000
    O68     O    0.66291   0.63800   0.49424   1.000
    O69     O    0.65080   0.85821   0.50848   1.000
    N70     N    0.25028   0.25035   0.99893   1.000
    O71     O    0.16248   0.13838   0.00539   1.000
    O72     O    0.33782   0.36213   0.96790   1.000
    O73     O    0.29053   0.15554   0.89963   1.000
    O74     O    0.15063   0.35874   0.99097   1.000
    O75     O    0.20998   0.34509   0.09866   1.000
    N76     N    0.74985   0.74965   0.99954   1.000
    O77     O    0.79009   0.65488   0.90036   1.000
    O78     O    0.83775   0.86165   0.99370   1.000
    O79     O    0.84945   0.64127   0.00826   1.000
    O80     O    0.70970   0.84423   0.09936   1.000
    N81     N    0.24958   0.24949   0.49941   1.000
    O82     O    0.34870   0.14059   0.49086   1.000
    O83     O    0.29020   0.15501   0.59889   1.000
    O84     O    0.15009   0.35811   0.50806   1.000
    O85     O    0.20861   0.34397   0.40000   1.000
    O86     O    0.33728   0.36164   0.50549   1.000
    O87     O    0.16156   0.13791   0.49325   1.000
    N88     N    0.24987   0.74965   0.99954   1.000
    O89     O    0.15051   0.85835   0.99139   1.000
    O90     O    0.29010   0.65489   0.90037   1.000
    O91     O    0.16227   0.63787   0.00634   1.000
    O92     O    0.20965   0.84425   0.09942   1.000
    N93     N    0.75027   0.25038   0.99931   1.000
    O94     O    0.79040   0.15578   0.90001   1.000
    O95     O    0.70997   0.34513   0.09906   1.000
    O96     O    0.84972   0.14170   0.00797   1.000
    O97     O    0.65062   0.35875   0.96616   1.000
    O98     O    0.83781   0.36215   0.99309   1.000
loop_
    _geom_bond_atom_site_label_1
    _geom_bond_atom_site_label_2
    _geom_bond_distance
    _geom_bond_site_symmetry_2
    _ccdc_geom_bond_type
    Zr22   O32       0.88238      .   S
    Zr14   O32       0.88238      .   S
    Zr20   O33       0.88240      .   S
    Zr12   O33       0.88240      .   S
    Zr21   O34       0.88741      .   S
    Zr13   O34       0.88741      .   S
    Zr23   O35       0.93319      .   S
    Zr6    O35       0.93319  1_545   S
    Zr12   O36       0.88780      .   S
    Zr24   O36       0.88780      .   S
    Zr14   O37       0.88777      .   S
    Zr26   O37       0.88777      .   S
    Zr15   O38       0.87520      .   S
    Zr6    O38       0.87520  1_545   S
    Zr13   O39       0.88281      .   S
    Zr25   O39       0.88281      .   S
    Zr27   O40       0.39254      .   S
    Zr6    O40       0.39254  1_545   S
    Zr18   O41       0.88271      .   S
    Zr10   O41       0.88271      .   S
    Zr16   O42       0.88445      .   S
    Zr8    O42       0.88445      .   S
    Zr17   O43       0.88818      .   S
    Zr9    O43       0.88818      .   S
    Zr19   O44       0.88793      .   S
    Zr11   O44       0.88793      .   S
    Zr8    O45       0.88664      .   S
    Zr28   O45       0.88664      .   S
    Zr10   O46       0.88755      .   S
    Zr30   O46       0.88755      .   S
    Zr11   O47       0.88217      .   S
    Zr31   O47       0.88217      .   S
    Zr29   O48       0.40562      .   S
    Zr7    O48       0.40562      .   S
    N49    O50       2.62870      .   S
    Zr3    O50       3.52538      .   S
    N49    O51       2.53064      .   S
    Zr2    O51       3.32862  1_565   S
    N49    O52       2.44530      .   S
    Zr14   O52       3.18711      .   S
    N49    O53       2.44162      .   S
    Zr10   O53       3.17362      .   S
    N49    O54       2.62699      .   S
    Zr0    O54       3.51904  1_565   S
    N49    O55       2.53470      .   S
    Zr1    O55       3.33021  1_455   S
    N56    O57       2.62957      .   S
    Zr0    O57       3.52303  1_655   S
    N56    O58       2.53234      .   S
    Zr1    O58       3.32748      .   S
    N56    O59       2.44317      .   S
    Zr9    O59       3.18543      .   S
    N56    O60       2.62898      .   S
    Zr3    O60       3.52551      .   S
    N56    O61       2.51928      .   S
    Zr2    O61       3.31324      .   S
    N56    O62       2.44433      .   S
    Zr13   O62       3.17560      .   S
    N63    O64       2.52571      .   S
    Zr0    O64       3.32090      .   S
    N63    O65       2.44536      .   S
    Zr15   O65       3.17537      .   S
    N63    O66       2.62822      .   S
    Zr1    O66       3.52435  1_455   S
    N63    O67       2.44295      .   S
    Zr11   O67       3.18497      .   S
    N63    O68       2.53247      .   S
    Zr3    O68       3.32803      .   S
    N63    O69       2.62261      .   S
    Zr2    O69       3.51795      .   S
    N70    O71       2.53151  1_556   S
    Zr4    O71       3.32910  1_556   S
    N70    O72       2.55501      .   S
    Zr7    O72       3.42413      .   S
    N70    O73       2.44509      .   S
    Zr8    O73       3.17806      .   S
    N70    O74       2.62513      .   S
    Zr5    O74       3.52105  1_554   S
    N70    O75       2.44676  1_556   S
    Zr12   O75       3.17578      .   S
    N76    O77       2.44360      .   S
    Zr11   O77       3.16924      .   S
    N76    O78       2.53223      .   S
    Zr4    O78       3.33019  1_445   S
    N76    O79       2.62510  1_556   S
    Zr5    O79       3.52048  1_455   S
    N76    O80       2.44394  1_556   S
    Zr15   O80       3.17502      .   S
    N81    O82       2.63278      .   S
    Zr2    O82       3.52598  1_565   S
    N81    O83       2.44501      .   S
    Zr8    O83       3.17903      .   S
    N81    O84       2.62905      .   S
    Zr1    O84       3.52603      .   S
    N81    O85       2.44527      .   S
    Zr12   O85       3.18742      .   S
    N81    O86       2.53435      .   S
    Zr3    O86       3.32921      .   S
    N81    O87       2.52368      .   S
    Zr0    O87       3.32234  1_665   S
    N88    O89       2.62993      .   S
    Zr4    O89       3.52763  1_545   S
    N88    O90       2.44350      .   S
    Zr9    O90       3.16915      .   S
    N88    O91       2.52718  1_556   S
    Zr5    O91       3.31995      .   S
    N88    O92       2.44463  1_556   S
    Zr13   O92       3.17548      .   S
    N93    O94       2.44103      .   S
    Zr10   O94       3.17154      .   S
    N93    O95       2.44686  1_556   S
    Zr14   O95       3.17292      .   S
    N93    O96       2.63038  1_556   S
    Zr4    O96       3.52774  1_456   S
    N93    O97       2.65473      .   S
    Zr7    O97       3.61254      .   S
    N93    O98       2.52659      .   S
    Zr5    O98       3.31963  1_454   S
