# CIF file generated by openbabel 2.4.90, see http://openbabel.sf.net
data_I
_chemical_name_common ''
_cell_length_a 20.652
_cell_length_b 13.157
_cell_length_c 17.994
_cell_angle_alpha 79.403
_cell_angle_beta 86.853
_cell_angle_gamma 78.876
_space_group_name_H-M_alt 'P 1'
_space_group_name_Hall 'P 1'
loop_
    _symmetry_equiv_pos_as_xyz
    x,y,z
loop_
    _atom_site_label
    _atom_site_type_symbol
    _atom_site_fract_x
    _atom_site_fract_y
    _atom_site_fract_z
    _atom_site_occupancy
    C0      C    0.46681   0.91203   0.79877   1.000
    C1      C    0.96680   0.91203   0.79877   1.000
    C2      C    0.03318   0.08797   0.20123   1.000
    C3      C    0.53317   0.08798   0.20120   1.000
    C4      C    0.25000   0.50000   0.50000   1.000
    C5      C    0.74999   0.50000   0.50000   1.000
    C6      C    0.28997   0.19793   0.69439   1.000
    C7      C    0.78996   0.19793   0.69439   1.000
    C8      C    0.22334   0.91414   0.80061   1.000
    C9      C    0.72333   0.91413   0.80061   1.000
    C10     C    0.08250   0.18597   0.70488   1.000
    C11     C    0.58249   0.18597   0.70489   1.000
    C12     C    0.10233   0.75722   0.73467   1.000
    C13     C    0.60232   0.75722   0.73467   1.000
    C14     C    0.09605   0.57897   0.67200   1.000
    C15     C    0.59604   0.57897   0.67201   1.000
    C16     C    0.40435   0.71707   0.73939   1.000
    C17     C    0.90434   0.71706   0.73939   1.000
    C18     C    0.41781   0.57631   0.64659   1.000
    C19     C    0.91781   0.57630   0.64658   1.000
    C20     C    0.49948   0.51718   0.62561   1.000
    C21     C    0.99947   0.51717   0.62561   1.000
    C22     C    0.03677   0.47362   0.80343   1.000
    C23     C    0.53676   0.47362   0.80344   1.000
    C24     C    0.03215   0.31390   0.89760   1.000
    C25     C    0.53214   0.31390   0.89760   1.000
    C26     C    0.38486   0.23712   0.76782   1.000
    C27     C    0.88485   0.23712   0.76780   1.000
    C28     C    0.38571   0.40254   0.67596   1.000
    C29     C    0.88570   0.40254   0.67590   1.000
    C30     C    0.46951   0.09727   0.85840   1.000
    C31     C    0.96950   0.09727   0.85840   1.000
    C32     C    0.40639   0.15774   0.91495   1.000
    C33     C    0.90638   0.15774   0.91494   1.000
    C34     C    0.09563   0.10564   0.89844   1.000
    C35     C    0.59562   0.10565   0.89845   1.000
    C36     C    0.14001   0.07492   0.04604   1.000
    C37     C    0.64000   0.07493   0.04605   1.000
    C38     C    0.43210   0.15267   0.04992   1.000
    C39     C    0.93209   0.15267   0.04992   1.000
    C40     C    0.21002   0.80206   0.30561   1.000
    C41     C    0.71001   0.80206   0.30561   1.000
    C42     C    0.27664   0.08587   0.19939   1.000
    C43     C    0.77664   0.08586   0.19939   1.000
    C44     C    0.41750   0.81404   0.29510   1.000
    C45     C    0.91749   0.81403   0.29512   1.000
    C46     C    0.39766   0.24278   0.26534   1.000
    C47     C    0.89765   0.24278   0.26533   1.000
    C48     C    0.40394   0.42103   0.32800   1.000
    C49     C    0.90393   0.42103   0.32799   1.000
    C50     C    0.09564   0.28293   0.26061   1.000
    C51     C    0.59563   0.28293   0.26062   1.000
    C52     C    0.08218   0.42369   0.35342   1.000
    C53     C    0.58217   0.42369   0.35342   1.000
    C54     C    0.00052   0.48282   0.37439   1.000
    C55     C    0.50051   0.48282   0.37440   1.000
    C56     C    0.46323   0.52638   0.19657   1.000
    C57     C    0.96321   0.52637   0.19657   1.000
    C58     C    0.46784   0.68610   0.10241   1.000
    C59     C    0.96783   0.68609   0.10240   1.000
    C60     C    0.11513   0.76288   0.23218   1.000
    C61     C    0.61512   0.76289   0.23219   1.000
    C62     C    0.11428   0.59745   0.32404   1.000
    C63     C    0.61427   0.59746   0.32405   1.000
    C64     C    0.03048   0.90273   0.14160   1.000
    C65     C    0.53047   0.90273   0.14161   1.000
    C66     C    0.09360   0.84226   0.08506   1.000
    C67     C    0.59359   0.84227   0.08506   1.000
    C68     C    0.40436   0.89435   0.10156   1.000
    C69     C    0.90435   0.89435   0.10156   1.000
    C70     C    0.35998   0.92508   0.95396   1.000
    C71     C    0.85997   0.92507   0.95396   1.000
    C72     C    0.06790   0.84733   0.95008   1.000
    C73     C    0.56788   0.84733   0.95009   1.000
    C74     C    0.42265   0.50652   0.48120   1.000
    C75     C    0.92264   0.50652   0.48119   1.000
    C76     C    0.01726   0.33447   0.54727   1.000
    C77     C    0.51725   0.33447   0.54727   1.000
    C78     C    0.32897   0.24859   0.56013   1.000
    C79     C    0.82896   0.24859   0.56013   1.000
    C80     C    0.00305   0.16006   0.63205   1.000
    C81     C    0.50304   0.16006   0.63205   1.000
    C82     C    0.42477   0.12671   0.64262   1.000
    C83     C    0.92476   0.12671   0.64262   1.000
    C84     C    0.01589   0.95069   0.63827   1.000
    C85     C    0.51588   0.95069   0.63827   1.000
    C86     C    0.45149   0.18371   0.44258   1.000
    C87     C    0.95148   0.18371   0.44258   1.000
    C88     C    0.32706   0.70414   0.51116   1.000
    C89     C    0.82705   0.70413   0.51116   1.000
    C90     C    0.25554   0.71878   0.73540   1.000
    C91     C    0.75554   0.71879   0.73500   1.000
    C92     C    0.22535   0.54087   0.69000   1.000
    C93     C    0.72534   0.54088   0.69000   1.000
    C94     C    0.37366   0.82979   0.60515   1.000
    C95     C    0.87366   0.82978   0.60514   1.000
    C96     C    0.31229   0.86290   0.67360   1.000
    C97     C    0.81229   0.86290   0.67360   1.000
    C98     C    0.18680   0.91091   0.60547   1.000
    C99     C    0.68680   0.91090   0.60547   1.000
    C100    C    0.37249   0.95474   0.49471   1.000
    C101    C    0.87248   0.95474   0.49470   1.000
    C102    C    0.07734   0.49348   0.51880   1.000
    C103    C    0.57733   0.49348   0.51881   1.000
    C104    C    0.48274   0.66553   0.45270   1.000
    C105    C    0.98273   0.66552   0.45273   1.000
    C106    C    0.17103   0.75141   0.43980   1.000
    C107    C    0.67102   0.75141   0.43988   1.000
    C108    C    0.49695   0.83994   0.36790   1.000
    C109    C    0.99694   0.83994   0.36795   1.000
    C110    C    0.07523   0.87328   0.35738   1.000
    C111    C    0.57522   0.87329   0.35739   1.000
    C112    C    0.48411   0.04931   0.36173   1.000
    C113    C    0.98410   0.04931   0.36173   1.000
    C114    C    0.04851   0.81629   0.55742   1.000
    C115    C    0.54850   0.81629   0.55742   1.000
    C116    C    0.17294   0.29586   0.48883   1.000
    C117    C    0.67292   0.29586   0.48884   1.000
    C118    C    0.24446   0.28122   0.26460   1.000
    C119    C    0.74444   0.28122   0.26461   1.000
    C120    C    0.27465   0.45913   0.31000   1.000
    C121    C    0.77463   0.45913   0.31000   1.000
    C122    C    0.12633   0.17022   0.39485   1.000
    C123    C    0.62632   0.17021   0.39486   1.000
    C124    C    0.18771   0.13710   0.32640   1.000
    C125    C    0.68769   0.13710   0.32640   1.000
    C126    C    0.31319   0.08910   0.39453   1.000
    C127    C    0.81318   0.08910   0.39453   1.000
    C128    C    0.12750   0.04526   0.50529   1.000
    C129    C    0.62750   0.04526   0.50530   1.000
    C130    C    0.18481   0.20322   0.69483   1.000
    C131    C    0.68480   0.20322   0.69484   1.000
    C132    C    0.24998   0.15510   0.71153   1.000
    C133    C    0.74997   0.15510   0.71153   1.000
    C134    C    0.26424   0.05043   0.74969   1.000
    C135    C    0.76423   0.05043   0.74969   1.000
    C136    C    0.33431   0.99675   0.76663   1.000
    C137    C    0.83430   0.99675   0.76663   1.000
    C138    C    0.21265   0.99538   0.77120   1.000
    C139    C    0.71264   0.99538   0.77122   1.000
    C140    C    0.14713   0.04384   0.75544   1.000
    C141    C    0.64711   0.04384   0.75545   1.000
    C142    C    0.09240   0.98241   0.77798   1.000
    C143    C    0.59239   0.98241   0.77798   1.000
    C144    C    0.13337   0.14833   0.71727   1.000
    C145    C    0.63336   0.14833   0.71727   1.000
    C146    C    0.06055   0.72308   0.72474   1.000
    C147    C    0.56054   0.72308   0.72474   1.000
    C148    C    0.05818   0.63650   0.69326   1.000
    C149    C    0.55816   0.63650   0.69326   1.000
    C150    C    0.45714   0.70592   0.72873   1.000
    C151    C    0.95713   0.70592   0.72872   1.000
    C152    C    0.46640   0.54268   0.67130   1.000
    C153    C    0.96640   0.54268   0.67132   1.000
    C154    C    0.46179   0.44917   0.73303   1.000
    C155    C    0.96179   0.44917   0.73300   1.000
    C156    C    0.00221   0.42356   0.79596   1.000
    C157    C    0.50219   0.42356   0.79596   1.000
    C158    C    0.49993   0.33234   0.84907   1.000
    C159    C    0.99992   0.33234   0.84907   1.000
    C160    C    0.45821   0.26435   0.83916   1.000
    C161    C    0.95820   0.26435   0.83915   1.000
    C162    C    0.41709   0.29053   0.77628   1.000
    C163    C    0.91708   0.29053   0.77627   1.000
    C164    C    0.41835   0.38259   0.72420   1.000
    C165    C    0.91834   0.38259   0.72426   1.000
    C166    C    0.45636   0.16078   0.89151   1.000
    C167    C    0.95635   0.16078   0.89150   1.000
    C168    C    0.06919   0.11041   0.95173   1.000
    C169    C    0.56918   0.11041   0.95174   1.000
    C170    C    0.09027   0.09534   0.02461   1.000
    C171    C    0.59026   0.09535   0.02462   1.000
    C172    C    0.48270   0.13682   0.02917   1.000
    C173    C    0.98269   0.13682   0.02916   1.000
    C174    C    0.31519   0.79679   0.30517   1.000
    C175    C    0.81518   0.79678   0.30517   1.000
    C176    C    0.25002   0.84490   0.28848   1.000
    C177    C    0.75001   0.84489   0.28847   1.000
    C178    C    0.23576   0.94957   0.25031   1.000
    C179    C    0.73575   0.94957   0.25031   1.000
    C180    C    0.16568   0.00324   0.23337   1.000
    C181    C    0.66567   0.00324   0.23330   1.000
    C182    C    0.28734   0.00462   0.22878   1.000
    C183    C    0.78733   0.00461   0.22877   1.000
    C184    C    0.35286   0.95617   0.24456   1.000
    C185    C    0.85286   0.95616   0.24456   1.000
    C186    C    0.40759   0.01761   0.22203   1.000
    C187    C    0.90758   0.01759   0.22202   1.000
    C188    C    0.36662   0.85168   0.28274   1.000
    C189    C    0.86661   0.85167   0.28273   1.000
    C190    C    0.43944   0.27692   0.27520   1.000
    C191    C    0.93943   0.27692   0.27526   1.000
    C192    C    0.44182   0.36351   0.30674   1.000
    C193    C    0.94181   0.36350   0.30674   1.000
    C194    C    0.04285   0.29407   0.27127   1.000
    C195    C    0.54284   0.29408   0.27128   1.000
    C196    C    0.03359   0.45732   0.32868   1.000
    C197    C    0.53358   0.45732   0.32868   1.000
    C198    C    0.03820   0.55082   0.26697   1.000
    C199    C    0.53819   0.55083   0.26698   1.000
    C200    C    0.49779   0.57644   0.20405   1.000
    C201    C    0.99778   0.57644   0.20404   1.000
    C202    C    0.00006   0.66766   0.15093   1.000
    C203    C    0.50005   0.66766   0.15090   1.000
    C204    C    0.04178   0.73565   0.16085   1.000
    C205    C    0.54177   0.73565   0.16085   1.000
    C206    C    0.08290   0.70947   0.22372   1.000
    C207    C    0.58289   0.70948   0.22373   1.000
    C208    C    0.08164   0.61741   0.27574   1.000
    C209    C    0.58164   0.61741   0.27574   1.000
    C210    C    0.04363   0.83922   0.10850   1.000
    C211    C    0.54362   0.83922   0.10850   1.000
    C212    C    0.43080   0.88959   0.04827   1.000
    C213    C    0.93079   0.88959   0.04827   1.000
    C214    C    0.40972   0.90465   0.97539   1.000
    C215    C    0.90971   0.90465   0.97539   1.000
    C216    C    0.01729   0.86318   0.97084   1.000
    C217    C    0.51728   0.86318   0.97084   1.000
    C218    C    0.41795   0.42681   0.50669   1.000
    C219    C    0.91794   0.42681   0.50668   1.000
    C220    C    0.46493   0.34289   0.53756   1.000
    C221    C    0.96491   0.34288   0.53755   1.000
    C222    C    0.36685   0.29595   0.54591   1.000
    C223    C    0.86684   0.29595   0.54591   1.000
    C224    C    0.46057   0.15459   0.59990   1.000
    C225    C    0.96056   0.15458   0.59990   1.000
    C226    C    0.48097   0.07665   0.54670   1.000
    C227    C    0.98095   0.07664   0.54675   1.000
    C228    C    0.00845   0.97241   0.57751   1.000
    C229    C    0.50844   0.97241   0.57752   1.000
    C230    C    0.47281   0.10339   0.46843   1.000
    C231    C    0.97280   0.10339   0.46843   1.000
    C232    C    0.30338   0.68289   0.56573   1.000
    C233    C    0.80338   0.68289   0.56570   1.000
    C234    C    0.26548   0.68832   0.68308   1.000
    C235    C    0.76547   0.68832   0.68308   1.000
    C236    C    0.25092   0.60146   0.65994   1.000
    C237    C    0.75091   0.60147   0.65994   1.000
    C238    C    0.32029   0.84062   0.61742   1.000
    C239    C    0.82029   0.84062   0.61741   1.000
    C240    C    0.28376   0.92377   0.55700   1.000
    C241    C    0.78376   0.92377   0.55705   1.000
    C242    C    0.21475   0.94979   0.55928   1.000
    C243    C    0.71474   0.94978   0.55928   1.000
    C244    C    0.31871   0.97454   0.49726   1.000
    C245    C    0.81870   0.97454   0.49725   1.000
    C246    C    0.08205   0.57319   0.49332   1.000
    C247    C    0.58204   0.57319   0.49332   1.000
    C248    C    0.03507   0.65711   0.46245   1.000
    C249    C    0.53506   0.65712   0.46245   1.000
    C250    C    0.13314   0.70405   0.45400   1.000
    C251    C    0.63313   0.70405   0.45410   1.000
    C252    C    0.03942   0.84541   0.40010   1.000
    C253    C    0.53941   0.84542   0.40010   1.000
    C254    C    0.01903   0.92335   0.45325   1.000
    C255    C    0.51902   0.92336   0.45325   1.000
    C256    C    0.49155   0.02759   0.42249   1.000
    C257    C    0.99154   0.02759   0.42249   1.000
    C258    C    0.02719   0.89661   0.53157   1.000
    C259    C    0.52718   0.89661   0.53150   1.000
    C260    C    0.19661   0.31711   0.43427   1.000
    C261    C    0.69660   0.31711   0.43428   1.000
    C262    C    0.23452   0.31169   0.31692   1.000
    C263    C    0.73450   0.31168   0.31692   1.000
    C264    C    0.24908   0.39854   0.34006   1.000
    C265    C    0.74906   0.39854   0.34006   1.000
    C266    C    0.17970   0.15938   0.38258   1.000
    C267    C    0.67969   0.15938   0.38259   1.000
    C268    C    0.21623   0.07623   0.44294   1.000
    C269    C    0.71622   0.07623   0.44295   1.000
    C270    C    0.28525   0.05022   0.44072   1.000
    C271    C    0.78524   0.05022   0.44072   1.000
    C272    C    0.18129   0.02546   0.50274   1.000
    C273    C    0.68128   0.02546   0.50275   1.000
    C274    C    0.16543   0.33552   0.64287   1.000
    C275    C    0.66542   0.33552   0.64280   1.000
    C276    C    0.33457   0.66448   0.35712   1.000
    C277    C    0.83456   0.66447   0.35712   1.000
    C278    C    0.99718   0.76601   0.74638   1.000
    C279    C    0.49717   0.76601   0.74639   1.000
    C280    C    0.49237   0.62687   0.69591   1.000
    C281    C    0.99237   0.62686   0.69590   1.000
    C282    C    0.50087   0.13685   0.95545   1.000
    C283    C    0.00000   0.13685   0.95544   1.000
    C284    C    0.03588   0.11176   0.07250   1.000
    C285    C    0.53587   0.11177   0.07250   1.000
    C286    C    0.50282   0.23399   0.25362   1.000
    C287    C    0.00000   0.23399   0.25360   1.000
    C288    C    0.00762   0.37313   0.30409   1.000
    C289    C    0.50761   0.37314   0.30410   1.000
    C290    C    0.99912   0.86315   0.04456   1.000
    C291    C    0.49911   0.86315   0.04456   1.000
    C292    C    0.46411   0.88824   0.92751   1.000
    C293    C    0.96410   0.88824   0.92750   1.000
    C294    C    0.35691   0.39662   0.51215   1.000
    C295    C    0.85690   0.39662   0.51215   1.000
    C296    C    0.43167   0.26056   0.56252   1.000
    C297    C    0.93166   0.26056   0.56252   1.000
    C298    C    0.27480   0.59917   0.58671   1.000
    C299    C    0.77479   0.59917   0.58671   1.000
    C300    C    0.29905   0.73895   0.62289   1.000
    C301    C    0.79905   0.73895   0.62289   1.000
    C302    C    0.14309   0.60338   0.48785   1.000
    C303    C    0.64308   0.60338   0.48786   1.000
    C304    C    0.06833   0.73944   0.43748   1.000
    C305    C    0.56832   0.73944   0.43740   1.000
    C306    C    0.22519   0.40084   0.41300   1.000
    C307    C    0.72518   0.40083   0.41330   1.000
    C308    C    0.20095   0.26105   0.37710   1.000
    C309    C    0.70093   0.26105   0.37711   1.000
    C310    C    0.22771   0.35159   0.59980   1.000
    C311    C    0.72770   0.35159   0.59985   1.000
    C312    C    0.14701   0.40588   0.69830   1.000
    C313    C    0.64701   0.40588   0.69835   1.000
    C314    C    0.11145   0.33366   0.59240   1.000
    C315    C    0.61143   0.33367   0.59248   1.000
    C316    C    0.37936   0.05312   0.75629   1.000
    C317    C    0.87934   0.05312   0.75629   1.000
    C318    C    0.34688   0.89787   0.79040   1.000
    C319    C    0.84686   0.89787   0.79040   1.000
    C320    C    0.10518   0.89050   0.81547   1.000
    C321    C    0.60517   0.89050   0.81547   1.000
    C322    C    0.03391   0.02998   0.75620   1.000
    C323    C    0.53390   0.02998   0.75622   1.000
    C324    C    0.27228   0.64840   0.40015   1.000
    C325    C    0.77227   0.64840   0.40015   1.000
    C326    C    0.35298   0.59414   0.30163   1.000
    C327    C    0.85297   0.59412   0.30164   1.000
    C328    C    0.38855   0.66632   0.40753   1.000
    C329    C    0.88854   0.66632   0.40750   1.000
    C330    C    0.12064   0.94686   0.24371   1.000
    C331    C    0.62063   0.94687   0.24371   1.000
    C332    C    0.15311   0.10212   0.20960   1.000
    C333    C    0.65310   0.10211   0.20960   1.000
    C334    C    0.39481   0.10952   0.18453   1.000
    C335    C    0.89480   0.10951   0.18453   1.000
    C336    C    0.46608   0.97004   0.24379   1.000
    C337    C    0.96607   0.97003   0.24370   1.000
    O338    O    0.11514   0.08513   0.03532   1.000
    O339    O    0.06308   0.10355   0.04856   1.000
    O340    O    0.07973   0.10288   0.98817   1.000
    O341    O    0.61513   0.08514   0.03534   1.000
    O342    O    0.56306   0.10356   0.04856   1.000
    O343    O    0.57972   0.10288   0.98818   1.000
    O344    O    0.95739   0.14474   0.03954   1.000
    O345    O    0.00929   0.12429   0.05083   1.000
    O346    O    0.99135   0.13683   0.99230   1.000
    O347    O    0.45740   0.14475   0.03955   1.000
    O348    O    0.50929   0.12429   0.05084   1.000
    O349    O    0.49179   0.13684   0.99231   1.000
    O350    O    0.46495   0.87637   0.04642   1.000
    O351    O    0.52136   0.85118   0.07653   1.000
    O352    O    0.50819   0.86317   0.00770   1.000
    O353    O    0.96495   0.87637   0.04642   1.000
    O354    O    0.02137   0.85118   0.07653   1.000
    O355    O    0.00820   0.86316   0.00770   1.000
    O356    O    0.41758   0.89197   0.07491   1.000
    O357    O    0.42026   0.89712   0.01183   1.000
    O358    O    0.91757   0.89197   0.07491   1.000
    O359    O    0.92025   0.89712   0.01183   1.000
    O360    O    0.53452   0.09987   0.13685   1.000
    O361    O    0.03453   0.09986   0.13687   1.000
    O362    O    0.06862   0.84074   0.09678   1.000
    O363    O    0.56861   0.84074   0.09678   1.000
    O364    O    0.98395   0.67688   0.12666   1.000
    O365    O    0.48395   0.67688   0.12666   1.000
    O366    O    0.53705   0.87097   0.12506   1.000
    O367    O    0.54270   0.78743   0.13468   1.000
    O368    O    0.03705   0.87097   0.12505   1.000
    O369    O    0.04271   0.78743   0.13468   1.000
    O370    O    0.52091   0.70166   0.15588   1.000
    O371    O    0.49892   0.62205   0.17747   1.000
    O372    O    0.02092   0.70165   0.15589   1.000
    O373    O    0.99892   0.62205   0.17749   1.000
    O374    O    0.06234   0.72256   0.19229   1.000
    O375    O    0.56233   0.72256   0.19229   1.000
    O376    O    0.90119   0.06355   0.20328   1.000
    O377    O    0.40120   0.06356   0.20328   1.000
    O378    O    0.48051   0.55141   0.20031   1.000
    O379    O    0.98050   0.55141   0.20031   1.000
    O380    O    0.78198   0.04524   0.21408   1.000
    O381    O    0.28199   0.04524   0.21408   1.000
    O382    O    0.59314   0.09504   0.20540   1.000
    O383    O    0.57690   0.01742   0.22246   1.000
    O384    O    0.49962   0.02901   0.22250   1.000
    O385    O    0.51799   0.16098   0.22741   1.000
    O386    O    0.09315   0.09504   0.20542   1.000
    O387    O    0.99962   0.02900   0.22247   1.000
    O388    O    0.07691   0.01742   0.22247   1.000
    O389    O    0.01659   0.16098   0.22742   1.000
    O390    O    0.01799   0.56363   0.23551   1.000
    O391    O    0.51799   0.56363   0.23552   1.000
    O392    O    0.65939   0.05267   0.22145   1.000
    O393    O    0.15940   0.05268   0.22149   1.000
    O394    O    0.93682   0.99381   0.23286   1.000
    O395    O    0.88022   0.98688   0.23329   1.000
    O396    O    0.43683   0.99382   0.23291   1.000
    O397    O    0.38023   0.98689   0.23330   1.000
    O398    O    0.09902   0.73618   0.22795   1.000
    O399    O    0.08227   0.66344   0.24973   1.000
    O400    O    0.59901   0.73618   0.22796   1.000
    O401    O    0.58226   0.66344   0.24973   1.000
    O402    O    0.82009   0.98039   0.23667   1.000
    O403    O    0.76154   0.97709   0.23954   1.000
    O404    O    0.32010   0.98040   0.23667   1.000
    O405    O    0.26155   0.97710   0.23955   1.000
    O406    O    0.64315   0.97505   0.23851   1.000
    O407    O    0.70071   0.97640   0.24181   1.000
    O408    O    0.14316   0.97505   0.23854   1.000
    O409    O    0.20072   0.97640   0.24184   1.000
    O410    O    0.35974   0.90393   0.26365   1.000
    O411    O    0.85973   0.90392   0.26365   1.000
    O412    O    0.24289   0.89723   0.26939   1.000
    O413    O    0.74288   0.89723   0.26939   1.000
    O414    O    0.02143   0.26403   0.26244   1.000
    O415    O    0.96972   0.25545   0.26443   1.000
    O416    O    0.52283   0.26404   0.26245   1.000
    O417    O    0.47113   0.25546   0.26441   1.000
    O418    O    0.06925   0.28850   0.26594   1.000
    O419    O    0.56924   0.28851   0.26595   1.000
    O420    O    0.23949   0.29645   0.29076   1.000
    O421    O    0.73947   0.29645   0.29077   1.000
    O422    O    0.91854   0.25985   0.27030   1.000
    O423    O    0.41855   0.25985   0.27027   1.000
    O424    O    0.05992   0.58412   0.27136   1.000
    O425    O    0.03590   0.50407   0.29783   1.000
    O426    O    0.55991   0.58412   0.27136   1.000
    O427    O    0.53589   0.50408   0.29783   1.000
    O428    O    0.02524   0.33360   0.28768   1.000
    O429    O    0.52523   0.33361   0.28769   1.000
    O430    O    0.44063   0.32021   0.29097   1.000
    O431    O    0.94062   0.32021   0.29100   1.000
    O432    O    0.09796   0.60743   0.29989   1.000
    O433    O    0.59795   0.60744   0.29990   1.000
    O434    O    0.89205   0.83285   0.28892   1.000
    O435    O    0.84089   0.82422   0.29395   1.000
    O436    O    0.39206   0.83286   0.28892   1.000
    O437    O    0.34090   0.82423   0.29395   1.000
    O438    O    0.78259   0.82084   0.29682   1.000
    O439    O    0.73001   0.82348   0.29704   1.000
    O440    O    0.28260   0.82084   0.29683   1.000
    O441    O    0.23002   0.82348   0.29705   1.000
    O442    O    0.34377   0.62931   0.32938   1.000
    O443    O    0.84376   0.62930   0.32938   1.000
    O444    O    0.97472   0.36832   0.30541   1.000
    O445    O    0.02061   0.41522   0.31639   1.000
    O446    O    0.47472   0.36832   0.30542   1.000
    O447    O    0.52060   0.41523   0.31639   1.000
    O448    O    0.32488   0.73063   0.33115   1.000
    O449    O    0.82487   0.73063   0.33115   1.000
    O450    O    0.42288   0.39227   0.31737   1.000
    O451    O    0.92287   0.39226   0.31737   1.000
    O452    O    0.26186   0.42884   0.32503   1.000
    O453    O    0.76185   0.42884   0.32503   1.000
    O454    O    0.74178   0.35511   0.32849   1.000
    O455    O    0.71772   0.28637   0.34702   1.000
    O456    O    0.24180   0.35511   0.32849   1.000
    O457    O    0.21773   0.28637   0.34701   1.000
    O458    O    0.68369   0.14824   0.35450   1.000
    O459    O    0.18371   0.14824   0.35449   1.000
    O460    O    0.55788   0.44051   0.34105   1.000
    O461    O    0.51704   0.47007   0.35154   1.000
    O462    O    0.05789   0.44050   0.34105   1.000
    O463    O    0.01705   0.47007   0.35154   1.000
    O464    O    0.73712   0.39969   0.37668   1.000
    O465    O    0.23714   0.39969   0.37653   1.000
    O466    O    0.30343   0.65644   0.37863   1.000
    O467    O    0.36156   0.66540   0.38233   1.000
    O468    O    0.80341   0.65643   0.37863   1.000
    O469    O    0.86155   0.66539   0.38231   1.000
    O470    O    0.05732   0.85935   0.37874   1.000
    O471    O    0.55732   0.85935   0.37875   1.000
    O472    O    0.48783   0.03845   0.39211   1.000
    O473    O    0.98782   0.03845   0.39211   1.000
    O474    O    0.51818   0.84268   0.38400   1.000
    O475    O    0.01818   0.84267   0.38403   1.000
    O476    O    0.19032   0.21022   0.37984   1.000
    O477    O    0.19878   0.28908   0.40569   1.000
    O478    O    0.69031   0.21022   0.37985   1.000
    O479    O    0.69876   0.28908   0.40570   1.000
    O480    O    0.15302   0.16480   0.38871   1.000
    O481    O    0.19797   0.11781   0.41276   1.000
    O482    O    0.65300   0.16480   0.38873   1.000
    O483    O    0.69795   0.11781   0.41277   1.000
    O484    O    0.29922   0.06966   0.41763   1.000
    O485    O    0.79921   0.06966   0.41763   1.000
    O486    O    0.05388   0.79242   0.41879   1.000
    O487    O    0.02923   0.88438   0.42668   1.000
    O488    O    0.55387   0.79243   0.41875   1.000
    O489    O    0.52922   0.88439   0.42668   1.000
    O490    O    0.26114   0.57420   0.45008   1.000
    O491    O    0.76113   0.57420   0.45008   1.000
    O492    O    0.21090   0.35897   0.42364   1.000
    O493    O    0.23760   0.45042   0.45650   1.000
    O494    O    0.71089   0.35897   0.42379   1.000
    O495    O    0.73758   0.45042   0.45665   1.000
    O496    O    0.00528   0.97547   0.43787   1.000
    O497    O    0.98217   0.06549   0.44546   1.000
    O498    O    0.50528   0.97547   0.43787   1.000
    O499    O    0.48218   0.06549   0.44546   1.000
    O500    O    0.18477   0.30649   0.46155   1.000
    O501    O    0.68476   0.30649   0.46156   1.000
    O502    O    0.60073   0.72174   0.44575   1.000
    O503    O    0.55169   0.69828   0.44993   1.000
    O504    O    0.10074   0.72174   0.44574   1.000
    O505    O    0.05170   0.69827   0.44997   1.000
    O506    O    0.15209   0.72773   0.44690   1.000
    O507    O    0.65208   0.72773   0.44699   1.000
    O508    O    0.75073   0.06322   0.44184   1.000
    O509    O    0.80197   0.01238   0.46899   1.000
    O510    O    0.25074   0.06322   0.44183   1.000
    O511    O    0.30198   0.01238   0.46899   1.000
    O512    O    0.46215   0.14355   0.45551   1.000
    O513    O    0.96214   0.14355   0.45551   1.000
    O514    O    0.19876   0.05085   0.47284   1.000
    O515    O    0.69875   0.05084   0.47285   1.000
    O516    O    0.50890   0.66132   0.45758   1.000
    O517    O    0.00890   0.66132   0.45759   1.000
    O518    O    0.02311   0.90998   0.49241   1.000
    O519    O    0.52310   0.90998   0.49238   1.000
    O520    O    0.13812   0.65371   0.47093   1.000
    O521    O    0.63811   0.65372   0.47098   1.000
    O522    O    0.05856   0.61515   0.47789   1.000
    O523    O    0.55855   0.61515   0.47789   1.000
    O524    O    0.47689   0.09002   0.50757   1.000
    O525    O    0.97688   0.09002   0.50759   1.000
    O526    O    0.92029   0.46666   0.49394   1.000
    O527    O    0.42030   0.46667   0.49394   1.000
    O528    O    0.11257   0.58828   0.49059   1.000
    O529    O    0.19654   0.55169   0.49393   1.000
    O530    O    0.61256   0.58829   0.49059   1.000
    O531    O    0.69653   0.55169   0.49393   1.000
    O532    O    0.07970   0.53333   0.50606   1.000
    O533    O    0.57969   0.53333   0.50607   1.000
    O534    O    0.84559   0.96464   0.49598   1.000
    O535    O    0.34560   0.96464   0.49599   1.000
    O536    O    0.80123   0.94916   0.52715   1.000
    O537    O    0.30124   0.94916   0.52713   1.000
    O538    O    0.80344   0.44831   0.50607   1.000
    O539    O    0.76239   0.54958   0.54336   1.000
    O540    O    0.73884   0.42579   0.54993   1.000
    O541    O    0.30345   0.44831   0.50607   1.000
    O542    O    0.26240   0.54958   0.54336   1.000
    O543    O    0.23886   0.42579   0.54990   1.000
    O544    O    0.15439   0.03536   0.50401   1.000
    O545    O    0.19802   0.98763   0.53101   1.000
    O546    O    0.65439   0.03536   0.50403   1.000
    O547    O    0.69801   0.98762   0.53102   1.000
    O548    O    0.88741   0.41171   0.50942   1.000
    O549    O    0.94142   0.38484   0.52212   1.000
    O550    O    0.38743   0.41171   0.50942   1.000
    O551    O    0.44144   0.38485   0.52212   1.000
    O552    O    0.31522   0.69352   0.53845   1.000
    O553    O    0.81522   0.69351   0.53843   1.000
    O554    O    0.36188   0.34628   0.52903   1.000
    O555    O    0.86187   0.34628   0.52903   1.000
    O556    O    0.53784   0.85645   0.54446   1.000
    O557    O    0.51781   0.93451   0.55451   1.000
    O558    O    0.03785   0.85645   0.54450   1.000
    O559    O    0.01782   0.93451   0.55454   1.000
    O560    O    0.99109   0.33868   0.54241   1.000
    O561    O    0.94829   0.30172   0.55003   1.000
    O562    O    0.49109   0.33868   0.54242   1.000
    O563    O    0.44830   0.30172   0.55004   1.000
    O564    O    0.84790   0.27227   0.55302   1.000
    O565    O    0.89925   0.27825   0.55422   1.000
    O566    O    0.34791   0.27227   0.55302   1.000
    O567    O    0.39926   0.27826   0.55422   1.000
    O568    O    0.49470   0.02453   0.56211   1.000
    O569    O    0.47077   0.11562   0.57330   1.000
    O570    O    0.99470   0.02453   0.56213   1.000
    O571    O    0.97076   0.11561   0.57333   1.000
    O572    O    0.24926   0.93678   0.55814   1.000
    O573    O    0.30203   0.88220   0.58721   1.000
    O574    O    0.74925   0.93678   0.55817   1.000
    O575    O    0.80202   0.88220   0.58723   1.000
    O576    O    0.70077   0.93034   0.58238   1.000
    O577    O    0.20078   0.93035   0.58238   1.000
    O578    O    0.44612   0.20757   0.58121   1.000
    O579    O    0.94611   0.20757   0.58121   1.000
    O580    O    0.78909   0.64103   0.57620   1.000
    O581    O    0.80121   0.71092   0.59430   1.000
    O582    O    0.28909   0.64103   0.57622   1.000
    O583    O    0.30122   0.71092   0.59431   1.000
    O584    O    0.01217   0.96155   0.60789   1.000
    O585    O    0.51216   0.96155   0.60790   1.000
    O586    O    0.76285   0.60032   0.62333   1.000
    O587    O    0.26286   0.60032   0.62333   1.000
    O588    O    0.13844   0.33459   0.61764   1.000
    O589    O    0.63842   0.33459   0.61764   1.000
    O590    O    0.19657   0.34355   0.62134   1.000
    O591    O    0.69656   0.34356   0.62133   1.000
    O592    O    0.48180   0.15732   0.61598   1.000
    O593    O    0.44267   0.14065   0.62126   1.000
    O594    O    0.98180   0.15732   0.61598   1.000
    O595    O    0.94266   0.14065   0.62126   1.000
    O596    O    0.84698   0.83520   0.61128   1.000
    O597    O    0.34698   0.83521   0.61128   1.000
    O598    O    0.80967   0.78979   0.62015   1.000
    O599    O    0.81629   0.85176   0.64550   1.000
    O600    O    0.30967   0.78979   0.62016   1.000
    O601    O    0.31629   0.85176   0.64551   1.000
    O602    O    0.78226   0.71364   0.65299   1.000
    O603    O    0.28226   0.71364   0.65299   1.000
    O604    O    0.48294   0.52993   0.64846   1.000
    O605    O    0.98294   0.52992   0.64847   1.000
    O606    O    0.67511   0.26937   0.66882   1.000
    O607    O    0.65621   0.37070   0.67058   1.000
    O608    O    0.17512   0.26937   0.66885   1.000
    O609    O    0.15622   0.37070   0.67058   1.000
    O610    O    0.94210   0.55949   0.65895   1.000
    O611    O    0.44211   0.55949   0.65895   1.000
    O612    O    0.25820   0.64489   0.67151   1.000
    O613    O    0.23813   0.57117   0.67497   1.000
    O614    O    0.75819   0.64489   0.67151   1.000
    O615    O    0.73812   0.57117   0.67497   1.000
    O616    O    0.47939   0.58477   0.68361   1.000
    O617    O    0.46410   0.49592   0.70217   1.000
    O618    O    0.97938   0.58477   0.68361   1.000
    O619    O    0.96409   0.49592   0.70216   1.000
    O620    O    0.07711   0.60774   0.68263   1.000
    O621    O    0.57710   0.60773   0.68264   1.000
    O622    O    0.90202   0.39257   0.70008   1.000
    O623    O    0.40203   0.39256   0.70008   1.000
    O624    O    0.76051   0.70355   0.70904   1.000
    O625    O    0.26051   0.70355   0.70924   1.000
    O626    O    0.52527   0.63168   0.69459   1.000
    O627    O    0.55935   0.67979   0.70900   1.000
    O628    O    0.02527   0.63168   0.69458   1.000
    O629    O    0.05936   0.67979   0.70900   1.000
    O630    O    0.26997   0.17652   0.70296   1.000
    O631    O    0.76996   0.17652   0.70296   1.000
    O632    O    0.21739   0.17916   0.70318   1.000
    O633    O    0.15909   0.17578   0.70605   1.000
    O634    O    0.71738   0.17916   0.70318   1.000
    O635    O    0.65908   0.17578   0.70605   1.000
    O636    O    0.97475   0.66639   0.71231   1.000
    O637    O    0.47476   0.66639   0.71232   1.000
    O638    O    0.10793   0.16715   0.71108   1.000
    O639    O    0.60792   0.16715   0.71108   1.000
    O640    O    0.75710   0.10276   0.73061   1.000
    O641    O    0.25711   0.10277   0.73061   1.000
    O642    O    0.14025   0.09609   0.73636   1.000
    O643    O    0.64024   0.09608   0.73636   1.000
    O644    O    0.44007   0.41588   0.72862   1.000
    O645    O    0.41772   0.33656   0.75024   1.000
    O646    O    0.94006   0.41588   0.72863   1.000
    O647    O    0.91771   0.33656   0.75027   1.000
    O648    O    0.08144   0.74015   0.72971   1.000
    O649    O    0.02887   0.74455   0.73556   1.000
    O650    O    0.58143   0.74015   0.72971   1.000
    O651    O    0.52885   0.74454   0.73557   1.000
    O652    O    0.93074   0.71149   0.73406   1.000
    O653    O    0.97716   0.73596   0.73755   1.000
    O654    O    0.43075   0.71150   0.73406   1.000
    O655    O    0.47715   0.73597   0.73756   1.000
    O656    O    0.98200   0.43636   0.76448   1.000
    O657    O    0.48199   0.43637   0.76450   1.000
    O658    O    0.98199   0.83902   0.77258   1.000
    O659    O    0.48199   0.83902   0.77258   1.000
    O660    O    0.79926   0.02359   0.75816   1.000
    O661    O    0.73843   0.02290   0.76046   1.000
    O662    O    0.29927   0.02359   0.75816   1.000
    O663    O    0.23844   0.02291   0.76045   1.000
    O664    O    0.17989   0.01961   0.76332   1.000
    O665    O    0.11976   0.01312   0.76671   1.000
    O666    O    0.67988   0.01961   0.76334   1.000
    O667    O    0.61975   0.01312   0.76672   1.000
    O668    O    0.06316   0.00620   0.76709   1.000
    O669    O    0.00036   0.97100   0.77748   1.000
    O670    O    0.56315   0.00620   0.76710   1.000
    O671    O    0.50036   0.97100   0.77750   1.000
    O672    O    0.35683   0.02494   0.76146   1.000
    O673    O    0.42308   0.98258   0.77753   1.000
    O674    O    0.85682   0.02494   0.76146   1.000
    O675    O    0.92307   0.98257   0.77753   1.000
    O676    O    0.34059   0.94731   0.77852   1.000
    O677    O    0.84058   0.94731   0.77852   1.000
    O678    O    0.90097   0.26382   0.77204   1.000
    O679    O    0.40097   0.26382   0.77205   1.000
    O680    O    0.21800   0.95476   0.78591   1.000
    O681    O    0.71799   0.95476   0.78592   1.000
    O682    O    0.93764   0.27744   0.80771   1.000
    O683    O    0.43765   0.27744   0.80772   1.000
    O684    O    0.09879   0.93645   0.79673   1.000
    O685    O    0.59878   0.93645   0.79673   1.000
    O686    O    0.90683   0.90495   0.79459   1.000
    O687    O    0.40684   0.90495   0.79459   1.000
    O688    O    0.01949   0.44859   0.79970   1.000
    O689    O    0.00107   0.37795   0.82252   1.000
    O690    O    0.51947   0.44859   0.79970   1.000
    O691    O    0.50106   0.37795   0.82252   1.000
    O692    O    0.96545   0.90013   0.86314   1.000
    O693    O    0.46546   0.90013   0.86314   1.000
    O694    O    0.97906   0.29834   0.84411   1.000
    O695    O    0.95727   0.21257   0.86533   1.000
    O696    O    0.47907   0.29835   0.84412   1.000
    O697    O    0.45728   0.21257   0.86534   1.000
    O698    O    0.01604   0.32312   0.87334   1.000
    O699    O    0.51603   0.32312   0.87334   1.000
    O700    O    0.96292   0.12903   0.87495   1.000
    O701    O    0.46293   0.12903   0.87496   1.000
    O702    O    0.93136   0.15926   0.90322   1.000
    O703    O    0.97817   0.14882   0.92347   1.000
    O704    O    0.43137   0.15926   0.90323   1.000
    O705    O    0.47861   0.14882   0.92348   1.000
    O706    O    0.08241   0.10803   0.92509   1.000
    O707    O    0.58240   0.10803   0.92510   1.000
    O708    O    0.99069   0.87571   0.94917   1.000
    O709    O    0.93691   0.89644   0.95145   1.000
    O710    O    0.49069   0.87571   0.94918   1.000
    O711    O    0.43692   0.89645   0.95145   1.000
    O712    O    0.04259   0.85525   0.96046   1.000
    O713    O    0.54258   0.85526   0.96047   1.000
    O714    O    0.03459   0.12363   0.95359   1.000
    O715    O    0.53502   0.12363   0.95359   1.000
    O716    O    0.38485   0.91486   0.96467   1.000
    O717    O    0.88484   0.91486   0.96467   1.000
loop_
    _geom_bond_atom_site_label_1
    _geom_bond_atom_site_label_2
    _geom_bond_distance
    _geom_bond_site_symmetry_2
    _ccdc_geom_bond_type
    C170   O338      0.54195      .   S
    C36    O338      0.54195      .   S
    C170   O339      0.69273      .   S
    C284   O339      0.69273      .   S
    C170   O340      0.68601  1_554   S
    C168   O340      0.68601      .   S
    C171   O341      0.54195      .   S
    C37    O341      0.54195      .   S
    C171   O342      0.69268      .   S
    C285   O342      0.69268      .   S
    C171   O343      0.68601  1_554   S
    C169   O343      0.68601      .   S
    C173   O344      0.54246      .   S
    C39    O344      0.54246      .   S
    C173   O345      0.66767  1_655   S
    C284   O345      0.66767      .   S
    C173   O346      0.67735  1_554   S
    C283   O346      0.67735  1_455   S
    C172   O347      0.54243      .   S
    C38    O347      0.54243      .   S
    C172   O348      0.66745      .   S
    C285   O348      0.66745      .   S
    C172   O349      0.67928  1_554   S
    C282   O349      0.67928      .   S
    C291   O350      0.69358      .   S
    C212   O350      0.69358      .   S
    C291   O351      0.73131      .   S
    C211   O351      0.73131      .   S
    C291   O352      0.67927      .   S
    C217   O352      0.67927  1_556   S
    C290   O353      0.69379      .   S
    C213   O353      0.69379      .   S
    C290   O354      0.73131  1_655   S
    C210   O354      0.73131      .   S
    C290   O355      0.67928  1_655   S
    C216   O355      0.67928  1_556   S
    C212   O356      0.54154      .   S
    C68    O356      0.54154      .   S
    C212   O357      0.68601      .   S
    C214   O357      0.68601  1_556   S
    C213   O358      0.54154      .   S
    C69    O358      0.54154      .   S
    C213   O359      0.68600      .   S
    C215   O359      0.68600  1_556   S
    C285   O360      1.13909      .   S
    C3     O360      1.13909      .   S
    C284   O361      1.13936      .   S
    C2     O361      1.13936      .   S
    C66    O362      0.54918      .   S
    C210   O362      0.54918      .   S
    C67    O363      0.54918      .   S
    C211   O363      0.54918      .   S
    C59    O364      0.54498      .   S
    C202   O364      0.54498  1_455   S
    C58    O365      0.54457      .   S
    C203   O365      0.54457      .   S
    C211   O366      0.54880      .   S
    C65    O366      0.54880      .   S
    C211   O367      0.75659      .   S
    C205   O367      0.75659      .   S
    C210   O368      0.54874      .   S
    C64    O368      0.54874      .   S
    C210   O369      0.75659      .   S
    C204   O369      0.75659      .   S
    C203   O370      0.69782      .   S
    C205   O370      0.69782      .   S
    C203   O371      0.69855      .   S
    C200   O371      0.69855      .   S
    C202   O372      0.69774      .   S
    C204   O372      0.69774      .   S
    C202   O373      0.69840  1_455   S
    C201   O373      0.69840      .   S
    C204   O374      0.70159      .   S
    C206   O374      0.70159      .   S
    C205   O375      0.70166      .   S
    C207   O375      0.70166      .   S
    C335   O376      0.62920      .   S
    C187   O376      0.62920      .   S
    C334   O377      0.62921      .   S
    C186   O377      0.62921      .   S
    C56    O378      0.54452      .   S
    C200   O378      0.54452      .   S
    C57    O379      0.54450      .   S
    C201   O379      0.54450      .   S
    C43    O380      0.54425      .   S
    C183   O380      0.54425      .   S
    C42    O381      0.54426      .   S
    C182   O381      0.54426      .   S
    C3     O382      1.26703      .   S
    C333   O382      1.26703      .   S
    C3     O383      1.18634      .   S
    C331   O383      1.18634  1_565   S
    C3     O384      1.13917      .   S
    C336   O384      1.13917  1_565   S
    C3     O385      1.13031      .   S
    C286   O385      1.13031      .   S
    C2     O386      1.26701      .   S
    C332   O386      1.26701      .   S
    C2     O387      1.13913  1_455   S
    C337   O387      1.13913  1_565   S
    C2     O388      1.18628      .   S
    C330   O388      1.18628  1_565   S
    C2     O389      1.13308      .   S
    C287   O389      1.13308      .   S
    C201   O390      0.69778  1_655   S
    C198   O390      0.69778      .   S
    C200   O391      0.69765      .   S
    C199   O391      0.69765      .   S
    C333   O392      0.63629      .   S
    C181   O392      0.63629      .   S
    C332   O393      0.63638      .   S
    C180   O393      0.63638      .   S
    C187   O394      0.64675  1_545   S
    C337   O394      0.64675      .   S
    C187   O395      0.75440  1_545   S
    C185   O395      0.75440      .   S
    C186   O396      0.64697  1_545   S
    C336   O396      0.64697      .   S
    C186   O397      0.75441  1_545   S
    C184   O397      0.75441      .   S
    C206   O398      0.54567      .   S
    C60    O398      0.54567      .   S
    C206   O399      0.69579      .   S
    C208   O399      0.69579      .   S
    C207   O400      0.54567      .   S
    C61    O400      0.54567      .   S
    C207   O401      0.69574      .   S
    C209   O401      0.69574      .   S
    C183   O402      0.70015  1_545   S
    C185   O402      0.70015      .   S
    C183   O403      0.69982  1_545   S
    C179   O403      0.69982      .   S
    C182   O404      0.70015  1_545   S
    C184   O404      0.70015      .   S
    C182   O405      0.69982  1_545   S
    C178   O405      0.69982      .   S
    C181   O406      0.64157  1_545   S
    C331   O406      0.64157      .   S
    C181   O407      0.75191  1_545   S
    C179   O407      0.75191      .   S
    C180   O408      0.64157  1_545   S
    C330   O408      0.64157      .   S
    C180   O409      0.75182  1_545   S
    C178   O409      0.75182      .   S
    C184   O410      0.70109      .   S
    C188   O410      0.70109      .   S
    C185   O411      0.70109      .   S
    C189   O411      0.70109      .   S
    C178   O412      0.70229      .   S
    C176   O412      0.70229      .   S
    C179   O413      0.70229      .   S
    C177   O413      0.70229      .   S
    C287   O414      0.68964      .   S
    C194   O414      0.68964      .   S
    C287   O415      0.66903  1_455   S
    C191   O415      0.66903      .   S
    C286   O416      0.66754      .   S
    C195   O416      0.66754      .   S
    C286   O417      0.69326      .   S
    C190   O417      0.69326      .   S
    C50    O418      0.54145      .   S
    C194   O418      0.54145      .   S
    C51    O419      0.54145      .   S
    C195   O419      0.54145      .   S
    C118   O420      0.54196      .   S
    C262   O420      0.54196      .   S
    C119   O421      0.54188      .   S
    C263   O421      0.54188      .   S
    C47    O422      0.54179      .   S
    C191   O422      0.54179      .   S
    C46    O423      0.54161      .   S
    C190   O423      0.54161      .   S
    C198   O424      0.70128      .   S
    C208   O424      0.70128      .   S
    C198   O425      0.75609      .   S
    C196   O425      0.75609      .   S
    C199   O426      0.70125      .   S
    C209   O426      0.70125      .   S
    C199   O427      0.75604      .   S
    C197   O427      0.75604      .   S
    C194   O428      0.67949      .   S
    C288   O428      0.67949      .   S
    C195   O429      0.67949      .   S
    C289   O429      0.67949      .   S
    C190   O430      0.68643      .   S
    C192   O430      0.68643      .   S
    C191   O431      0.68613      .   S
    C193   O431      0.68613      .   S
    C208   O432      0.54559      .   S
    C62    O432      0.54559      .   S
    C209   O433      0.54567      .   S
    C63    O433      0.54567      .   S
    C189   O434      0.54387      .   S
    C45    O434      0.54387      .   S
    C189   O435      0.69900      .   S
    C175   O435      0.69900      .   S
    C188   O436      0.54384      .   S
    C44    O436      0.54384      .   S
    C188   O437      0.69901      .   S
    C174   O437      0.69901      .   S
    C177   O438      0.69786      .   S
    C175   O438      0.69786      .   S
    C177   O439      0.54376      .   S
    C41    O439      0.54376      .   S
    C176   O440      0.69785      .   S
    C174   O440      0.69785      .   S
    C176   O441      0.54376      .   S
    C40    O441      0.54376      .   S
    C326   O442      0.73491      .   S
    C276   O442      0.73491      .   S
    C327   O443      0.73489      .   S
    C277   O443      0.73489      .   S
    C288   O444      0.69328  1_455   S
    C193   O444      0.69328      .   S
    C288   O445      0.73246      .   S
    C196   O445      0.73246      .   S
    C289   O446      0.69308      .   S
    C192   O446      0.69308      .   S
    C289   O447      0.73241      .   S
    C197   O447      0.73241      .   S
    C174   O448      0.89974      .   S
    C276   O448      0.89974      .   S
    C175   O449      0.89975      .   S
    C277   O449      0.89975      .   S
    C192   O450      0.54228      .   S
    C48    O450      0.54228      .   S
    C193   O451      0.54225      .   S
    C49    O451      0.54225      .   S
    C120   O452      0.54301      .   S
    C264   O452      0.54301      .   S
    C121   O453      0.54301      .   S
    C265   O453      0.54301      .   S
    C263   O454      0.68758      .   S
    C265   O454      0.68758      .   S
    C263   O455      0.69425      .   S
    C309   O455      0.69425      .   S
    C262   O456      0.68758      .   S
    C264   O456      0.68758      .   S
    C262   O457      0.69419      .   S
    C308   O457      0.69419      .   S
    C125   O458      0.54942      .   S
    C267   O458      0.54942      .   S
    C124   O459      0.54934      .   S
    C266   O459      0.54934      .   S
    C197   O460      0.54913      .   S
    C53    O460      0.54913      .   S
    C197   O461      0.54940      .   S
    C55    O461      0.54940      .   S
    C196   O462      0.54913      .   S
    C52    O462      0.54913      .   S
    C196   O463      0.54934      .   S
    C54    O463      0.54934      .   S
    C265   O464      0.69256      .   S
    C307   O464      0.69256      .   S
    C264   O465      0.69004      .   S
    C306   O465      0.69004      .   S
    C276   O466      0.74737      .   S
    C324   O466      0.74737      .   S
    C276   O467      0.74094      .   S
    C328   O467      0.74094      .   S
    C277   O468      0.74736      .   S
    C325   O468      0.74736      .   S
    C277   O469      0.74076      .   S
    C329   O469      0.74076      .   S
    C110   O470      0.55014      .   S
    C252   O470      0.55014      .   S
    C111   O471      0.55008      .   S
    C253   O471      0.55008      .   S
    C112   O472      0.54480      .   S
    C256   O472      0.54480      .   S
    C113   O473      0.54480      .   S
    C257   O473      0.54480      .   S
    C108   O474      0.54897      .   S
    C253   O474      0.54897      .   S
    C109   O475      0.54888  1_655   S
    C252   O475      0.54888      .   S
    C308   O476      0.73567      .   S
    C266   O476      0.73567      .   S
    C308   O477      0.68076      .   S
    C260   O477      0.68076      .   S
    C309   O478      0.73567      .   S
    C267   O478      0.73567      .   S
    C309   O479      0.68077      .   S
    C261   O479      0.68077      .   S
    C266   O480      0.54957      .   S
    C122   O480      0.54957      .   S
    C266   O481      0.75499      .   S
    C268   O481      0.75499      .   S
    C267   O482      0.54956      .   S
    C123   O482      0.54956      .   S
    C267   O483      0.75500      .   S
    C269   O483      0.75500      .   S
    C126   O484      0.54552      .   S
    C270   O484      0.54552      .   S
    C127   O485      0.54551      .   S
    C271   O485      0.54551      .   S
    C252   O486      0.72988      .   S
    C304   O486      0.72988      .   S
    C252   O487      0.75721      .   S
    C254   O487      0.75721      .   S
    C253   O488      0.72966      .   S
    C305   O488      0.72966      .   S
    C253   O489      0.75721      .   S
    C255   O489      0.75721      .   S
    C324   O490      1.24678      .   S
    C4     O490      1.24678      .   S
    C325   O491      1.24678      .   S
    C5     O491      1.24678      .   S
    C306   O492      0.66696      .   S
    C260   O492      0.66696      .   S
    C306   O493      1.17394      .   S
    C4     O493      1.17394      .   S
    C307   O494      0.66667      .   S
    C261   O494      0.66667      .   S
    C307   O495      1.17185      .   S
    C5     O495      1.17185      .   S
    C257   O496      0.70077  1_645   S
    C254   O496      0.70077      .   S
    C257   O497      0.69768      .   S
    C231   O497      0.69768      .   S
    C256   O498      0.70071  1_545   S
    C255   O498      0.70071      .   S
    C256   O499      0.69768      .   S
    C230   O499      0.69768      .   S
    C260   O500      0.54318      .   S
    C116   O500      0.54318      .   S
    C261   O501      0.54318      .   S
    C117   O501      0.54318      .   S
    C305   O502      0.68028      .   S
    C251   O502      0.68028      .   S
    C305   O503      0.69311      .   S
    C249   O503      0.69311      .   S
    C304   O504      0.67993      .   S
    C250   O504      0.67993      .   S
    C304   O505      0.69300      .   S
    C248   O505      0.69300      .   S
    C106   O506      0.54157      .   S
    C250   O506      0.54157      .   S
    C107   O507      0.54158      .   S
    C251   O507      0.54158      .   S
    C271   O508      0.70017      .   S
    C269   O508      0.70017      .   S
    C271   O509      0.69692      .   S
    C245   O509      0.69692  1_565   S
    C270   O510      0.70017      .   S
    C268   O510      0.70017      .   S
    C270   O511      0.69697      .   S
    C244   O511      0.69697  1_565   S
    C86    O512      0.54524      .   S
    C230   O512      0.54524      .   S
    C87    O513      0.54524      .   S
    C231   O513      0.54524      .   S
    C268   O514      0.70023      .   S
    C272   O514      0.70023      .   S
    C269   O515      0.70022      .   S
    C273   O515      0.70022      .   S
    C104   O516      0.54269      .   S
    C249   O516      0.54269      .   S
    C105   O517      0.54285  1_655   S
    C248   O517      0.54285      .   S
    C254   O518      0.69984      .   S
    C258   O518      0.69984      .   S
    C255   O519      0.69923      .   S
    C259   O519      0.69923      .   S
    C250   O520      0.66699      .   S
    C302   O520      0.66699      .   S
    C251   O521      0.66676      .   S
    C303   O521      0.66676      .   S
    C248   O522      0.68726      .   S
    C246   O522      0.68726      .   S
    C249   O523      0.68726      .   S
    C247   O523      0.68726      .   S
    C230   O524      0.69940      .   S
    C226   O524      0.69940      .   S
    C231   O525      0.69984      .   S
    C227   O525      0.69984      .   S
    C75    O526      0.54251      .   S
    C219   O526      0.54251      .   S
    C74    O527      0.54250      .   S
    C218   O527      0.54250      .   S
    C302   O528      0.69314      .   S
    C246   O528      0.69314      .   S
    C302   O529      1.17871      .   S
    C4     O529      1.17871      .   S
    C303   O530      0.69314      .   S
    C247   O530      0.69314      .   S
    C303   O531      1.17872      .   S
    C5     O531      1.17872      .   S
    C246   O532      0.54248      .   S
    C102   O532      0.54248      .   S
    C247   O533      0.54251      .   S
    C103   O533      0.54251      .   S
    C101   O534      0.54561      .   S
    C245   O534      0.54561      .   S
    C100   O535      0.54561      .   S
    C244   O535      0.54561      .   S
    C245   O536      0.70022      .   S
    C241   O536      0.70022      .   S
    C244   O537      0.69988      .   S
    C240   O537      0.69988      .   S
    C5     O538      1.17871      .   S
    C295   O538      1.17871      .   S
    C5     O539      1.17193      .   S
    C299   O539      1.17193      .   S
    C5     O540      1.24682      .   S
    C311   O540      1.24682      .   S
    C4     O541      1.17871      .   S
    C294   O541      1.17871      .   S
    C4     O542      1.17193      .   S
    C298   O542      1.17193      .   S
    C4     O543      1.24658      .   S
    C310   O543      1.24658      .   S
    C272   O544      0.54561      .   S
    C128   O544      0.54561      .   S
    C272   O545      0.69697  1_545   S
    C242   O545      0.69697      .   S
    C273   O546      0.54562      .   S
    C129   O546      0.54562      .   S
    C273   O547      0.69692  1_545   S
    C243   O547      0.69692      .   S
    C219   O548      0.69315      .   S
    C295   O548      0.69315      .   S
    C219   O549      0.68726      .   S
    C221   O549      0.68726      .   S
    C218   O550      0.69314      .   S
    C294   O550      0.69314      .   S
    C218   O551      0.68726      .   S
    C220   O551      0.68726      .   S
    C88    O552      0.54326      .   S
    C232   O552      0.54326      .   S
    C89    O553      0.54303      .   S
    C233   O553      0.54303      .   S
    C294   O554      0.66676      .   S
    C222   O554      0.66676      .   S
    C295   O555      0.66676      .   S
    C223   O555      0.66676      .   S
    C259   O556      0.54541      .   S
    C115   O556      0.54541      .   S
    C259   O557      0.69819      .   S
    C229   O557      0.69819      .   S
    C258   O558      0.54524      .   S
    C114   O558      0.54524      .   S
    C258   O559      0.69768      .   S
    C228   O559      0.69768      .   S
    C221   O560      0.54286      .   S
    C76    O560      0.54286  1_455   S
    C221   O561      0.69299      .   S
    C297   O561      0.69299      .   S
    C220   O562      0.54263      .   S
    C77    O562      0.54263      .   S
    C220   O563      0.69298      .   S
    C296   O563      0.69298      .   S
    C223   O564      0.54157      .   S
    C79    O564      0.54157      .   S
    C223   O565      0.68011      .   S
    C297   O565      0.68011      .   S
    C222   O566      0.54158      .   S
    C78    O566      0.54158      .   S
    C222   O567      0.68010      .   S
    C296   O567      0.68010      .   S
    C226   O568      0.70084      .   S
    C229   O568      0.70084  1_565   S
    C226   O569      0.75754      .   S
    C224   O569      0.75754      .   S
    C227   O570      0.70076      .   S
    C228   O570      0.70076  1_465   S
    C227   O571      0.75721      .   S
    C225   O571      0.75721      .   S
    C240   O572      0.70018      .   S
    C242   O572      0.70018      .   S
    C240   O573      0.75532      .   S
    C238   O573      0.75532      .   S
    C241   O574      0.70017      .   S
    C243   O574      0.70017      .   S
    C241   O575      0.75500      .   S
    C239   O575      0.75500      .   S
    C243   O576      0.54551      .   S
    C99    O576      0.54551      .   S
    C242   O577      0.54552      .   S
    C98    O577      0.54552      .   S
    C296   O578      0.72989      .   S
    C224   O578      0.72989      .   S
    C297   O579      0.72988      .   S
    C225   O579      0.72988      .   S
    C233   O580      0.66670      .   S
    C299   O580      0.66670      .   S
    C233   O581      0.68093      .   S
    C301   O581      0.68093      .   S
    C232   O582      0.66667      .   S
    C298   O582      0.66667      .   S
    C232   O583      0.68069      .   S
    C300   O583      0.68069      .   S
    C228   O584      0.54480      .   S
    C84    O584      0.54480      .   S
    C229   O585      0.54471      .   S
    C85    O585      0.54471      .   S
    C299   O586      0.69248      .   S
    C237   O586      0.69248      .   S
    C298   O587      0.69247      .   S
    C236   O587      0.69247      .   S
    C314   O588      0.74129      .   S
    C274   O588      0.74129      .   S
    C315   O589      0.74043      .   S
    C275   O589      0.74043      .   S
    C310   O590      0.74753      .   S
    C274   O590      0.74753      .   S
    C311   O591      0.74704      .   S
    C275   O591      0.74704      .   S
    C224   O592      0.54871      .   S
    C81    O592      0.54871      .   S
    C224   O593      0.55014      .   S
    C82    O593      0.55014      .   S
    C225   O594      0.54888      .   S
    C80    O594      0.54888  1_455   S
    C225   O595      0.55015      .   S
    C83    O595      0.55015      .   S
    C95    O596      0.54957      .   S
    C239   O596      0.54957      .   S
    C94    O597      0.54958      .   S
    C238   O597      0.54958      .   S
    C239   O598      0.73567      .   S
    C301   O598      0.73567      .   S
    C239   O599      0.54943      .   S
    C97    O599      0.54943      .   S
    C238   O600      0.73567      .   S
    C300   O600      0.73567      .   S
    C238   O601      0.54934      .   S
    C96    O601      0.54934      .   S
    C301   O602      0.69424      .   S
    C235   O602      0.69424      .   S
    C300   O603      0.69425      .   S
    C234   O603      0.69425      .   S
    C20    O604      0.54920      .   S
    C152   O604      0.54920      .   S
    C21    O605      0.54934      .   S
    C153   O605      0.54934      .   S
    C275   O606      0.90000      .   S
    C131   O606      0.90000      .   S
    C275   O607      0.73543      .   S
    C313   O607      0.73543      .   S
    C274   O608      0.89974      .   S
    C130   O608      0.89974      .   S
    C274   O609      0.73460      .   S
    C312   O609      0.73460      .   S
    C19    O610      0.54912      .   S
    C153   O610      0.54912      .   S
    C18    O611      0.54902      .   S
    C152   O611      0.54902      .   S
    C236   O612      0.68758      .   S
    C234   O612      0.68758      .   S
    C236   O613      0.54301      .   S
    C92    O613      0.54301      .   S
    C237   O614      0.68759      .   S
    C235   O614      0.68759      .   S
    C237   O615      0.54301      .   S
    C93    O615      0.54301      .   S
    C152   O616      0.73254      .   S
    C280   O616      0.73254      .   S
    C152   O617      0.75619      .   S
    C154   O617      0.75619      .   S
    C153   O618      0.73240      .   S
    C281   O618      0.73240      .   S
    C153   O619      0.75593      .   S
    C155   O619      0.75593      .   S
    C14    O620      0.54228      .   S
    C148   O620      0.54228      .   S
    C15    O621      0.54225      .   S
    C149   O621      0.54225      .   S
    C29    O622      0.54601      .   S
    C165   O622      0.54601      .   S
    C28    O623      0.54516      .   S
    C164   O623      0.54516      .   S
    C235   O624      0.53864      .   S
    C91    O624      0.53864      .   S
    C234   O625      0.54196      .   S
    C90    O625      0.54196      .   S
    C149   O626      0.69308      .   S
    C280   O626      0.69308      .   S
    C149   O627      0.68613      .   S
    C147   O627      0.68613      .   S
    C148   O628      0.69329      .   S
    C281   O628      0.69329  1_655   S
    C148   O629      0.68612      .   S
    C146   O629      0.68612      .   S
    C6     O630      0.54376      .   S
    C132   O630      0.54376      .   S
    C7     O631      0.54376      .   S
    C133   O631      0.54376      .   S
    C130   O632      0.69787      .   S
    C132   O632      0.69787      .   S
    C130   O633      0.69901      .   S
    C144   O633      0.69901      .   S
    C131   O634      0.69786      .   S
    C133   O634      0.69786      .   S
    C131   O635      0.69901      .   S
    C145   O635      0.69901      .   S
    C281   O636      0.67949      .   S
    C151   O636      0.67949      .   S
    C280   O637      0.67949      .   S
    C150   O637      0.67949      .   S
    C10    O638      0.54387      .   S
    C144   O638      0.54387      .   S
    C11    O639      0.54386      .   S
    C145   O639      0.54386      .   S
    C133   O640      0.70227      .   S
    C135   O640      0.70227      .   S
    C132   O641      0.70227      .   S
    C134   O641      0.70227      .   S
    C144   O642      0.70108      .   S
    C140   O642      0.70108      .   S
    C145   O643      0.70111      .   S
    C141   O643      0.70111      .   S
    C164   O644      0.70141      .   S
    C154   O644      0.70141      .   S
    C164   O645      0.69606      .   S
    C162   O645      0.69606      .   S
    C165   O646      0.70120      .   S
    C155   O646      0.70120      .   S
    C165   O647      0.69574      .   S
    C163   O647      0.69574      .   S
    C146   O648      0.54180      .   S
    C12    O648      0.54180      .   S
    C146   O649      0.69342      .   S
    C278   O649      0.69342  1_655   S
    C147   O650      0.54179      .   S
    C13    O650      0.54179      .   S
    C147   O651      0.69346      .   S
    C279   O651      0.69346      .   S
    C151   O652      0.54145      .   S
    C17    O652      0.54145      .   S
    C151   O653      0.66771      .   S
    C278   O653      0.66771      .   S
    C150   O654      0.54145      .   S
    C16    O654      0.54145      .   S
    C150   O655      0.66755      .   S
    C279   O655      0.66755      .   S
    C155   O656      0.69799      .   S
    C156   O656      0.69799  1_455   S
    C154   O657      0.69764      .   S
    C157   O657      0.69764      .   S
    C278   O658      1.13018      .   S
    C1     O658      1.13018      .   S
    C279   O659      1.13012      .   S
    C0     O659      1.13012      .   S
    C135   O660      0.75183      .   S
    C137   O660      0.75183  1_565   S
    C135   O661      0.69982      .   S
    C139   O661      0.69982  1_565   S
    C134   O662      0.75182      .   S
    C136   O662      0.75182  1_565   S
    C134   O663      0.69978      .   S
    C138   O663      0.69978  1_565   S
    C140   O664      0.70011      .   S
    C138   O664      0.70011  1_565   S
    C140   O665      0.75440      .   S
    C142   O665      0.75440  1_565   S
    C141   O666      0.70013      .   S
    C139   O666      0.70013  1_565   S
    C141   O667      0.75440      .   S
    C143   O667      0.75440  1_565   S
    C322   O668      0.64700      .   S
    C142   O668      0.64700  1_565   S
    C322   O669      1.13931  1_545   S
    C1     O669      1.13931  1_655   S
    C323   O670      0.64696      .   S
    C143   O670      0.64696  1_565   S
    C323   O671      1.13912  1_545   S
    C0     O671      1.13912      .   S
    C316   O672      0.64158      .   S
    C136   O672      0.64158  1_565   S
    C316   O673      1.18623  1_545   S
    C0     O673      1.18623      .   S
    C317   O674      0.64156      .   S
    C137   O674      0.64156  1_565   S
    C317   O675      1.18624  1_545   S
    C1     O675      1.18624      .   S
    C136   O676      0.63639      .   S
    C318   O676      0.63639      .   S
    C137   O677      0.63639      .   S
    C319   O677      0.63639      .   S
    C27    O678      0.54569      .   S
    C163   O678      0.54569      .   S
    C26    O679      0.54567      .   S
    C162   O679      0.54567      .   S
    C138   O680      0.54434      .   S
    C8     O680      0.54434      .   S
    C139   O681      0.54428      .   S
    C9     O681      0.54428      .   S
    C163   O682      0.70165      .   S
    C161   O682      0.70165      .   S
    C162   O683      0.70165      .   S
    C160   O683      0.70165      .   S
    C142   O684      0.62920      .   S
    C320   O684      0.62920      .   S
    C143   O685      0.62919      .   S
    C321   O685      0.62919      .   S
    C319   O686      1.26708      .   S
    C1     O686      1.26708      .   S
    C318   O687      1.26708      .   S
    C0     O687      1.26708      .   S
    C156   O688      0.54449      .   S
    C22    O688      0.54449      .   S
    C156   O689      0.69840      .   S
    C159   O689      0.69840  1_655   S
    C157   O690      0.54452      .   S
    C23    O690      0.54452      .   S
    C157   O691      0.69836      .   S
    C158   O691      0.69836      .   S
    C1     O692      1.13936      .   S
    C293   O692      1.13936      .   S
    C0     O693      1.13944      .   S
    C292   O693      1.13944      .   S
    C161   O694      0.69774      .   S
    C159   O694      0.69774      .   S
    C161   O695      0.75658      .   S
    C167   O695      0.75658      .   S
    C160   O696      0.69771      .   S
    C158   O696      0.69771      .   S
    C160   O697      0.75658      .   S
    C166   O697      0.75658      .   S
    C159   O698      0.54498  1_655   S
    C24    O698      0.54498      .   S
    C158   O699      0.54484      .   S
    C25    O699      0.54484      .   S
    C31    O700      0.54874      .   S
    C167   O700      0.54874      .   S
    C30    O701      0.54880      .   S
    C166   O701      0.54880      .   S
    C167   O702      0.54918      .   S
    C33    O702      0.54918      .   S
    C167   O703      0.72573      .   S
    C283   O703      0.72573  1_455   S
    C166   O704      0.54918      .   S
    C32    O704      0.54918      .   S
    C166   O705      0.73132      .   S
    C282   O705      0.73132      .   S
    C34    O706      0.54154      .   S
    C168   O706      0.54154      .   S
    C35    O707      0.54154      .   S
    C169   O707      0.54154      .   S
    C293   O708      0.66767      .   S
    C216   O708      0.66767  1_455   S
    C293   O709      0.69273      .   S
    C215   O709      0.69273      .   S
    C292   O710      0.66745      .   S
    C217   O710      0.66745      .   S
    C292   O711      0.69268      .   S
    C214   O711      0.69268      .   S
    C72    O712      0.54246      .   S
    C216   O712      0.54246      .   S
    C73    O713      0.54243      .   S
    C217   O713      0.54243      .   S
    C168   O714      0.70239      .   S
    C283   O714      0.70239      .   S
    C169   O715      0.69358      .   S
    C282   O715      0.69358      .   S
    C70    O716      0.54195      .   S
    C214   O716      0.54195      .   S
    C71    O717      0.54196      .   S
    C215   O717      0.54196      .   S
