# CIF file generated by openbabel 2.4.90, see http://openbabel.sf.net
data_I
_chemical_name_common ''
_cell_length_a 21.836
_cell_length_b 13.243
_cell_length_c 13.24
_cell_angle_alpha 119.454
_cell_angle_beta 90.024
_cell_angle_gamma 90.096
_space_group_name_H-M_alt 'P 1'
_space_group_name_Hall 'P 1'
loop_
    _symmetry_equiv_pos_as_xyz
    x,y,z
loop_
    _atom_site_label
    _atom_site_type_symbol
    _atom_site_fract_x
    _atom_site_fract_y
    _atom_site_fract_z
    _atom_site_occupancy
    Cd0     Cd   0.75004   0.66731   0.33244   1.000
    Cd1     Cd   0.24999   0.33278   0.66759   1.000
    Cd2     Cd   0.74999   0.33185   0.66745   1.000
    Cd3     Cd   0.25004   0.66824   0.33257   1.000
    Ts4     Ts   0.77082   0.61914   0.28524   1.000
    Ts5     Ts   0.77088   0.66801   0.38090   1.000
    Ts6     Ts   0.77099   0.71469   0.33129   1.000
    Ts7     Ts   0.72917   0.66835   0.28494   1.000
    Ts8     Ts   0.72922   0.71451   0.38050   1.000
    Ts9     Ts   0.72917   0.61885   0.33172   1.000
    Ts10    Ts   0.22920   0.38095   0.71478   1.000
    Ts11    Ts   0.22915   0.33209   0.61913   1.000
    Ts12    Ts   0.22904   0.28540   0.66873   1.000
    Ts13    Ts   0.27085   0.33173   0.71509   1.000
    Ts14    Ts   0.27080   0.28558   0.61953   1.000
    Ts15    Ts   0.27085   0.38125   0.66831   1.000
    Ts16    Ts   0.72926   0.37999   0.71469   1.000
    Ts17    Ts   0.72907   0.33130   0.61915   1.000
    Ts18    Ts   0.72910   0.28442   0.66866   1.000
    Ts19    Ts   0.77093   0.33087   0.71497   1.000
    Ts20    Ts   0.77073   0.28462   0.61928   1.000
    Ts21    Ts   0.77088   0.38019   0.66803   1.000
    Ts22    Ts   0.27076   0.62010   0.28533   1.000
    Ts23    Ts   0.27096   0.66879   0.38087   1.000
    Ts24    Ts   0.27092   0.71567   0.33135   1.000
    Ts25    Ts   0.22910   0.66922   0.28505   1.000
    Ts26    Ts   0.22930   0.71547   0.38071   1.000
    Ts27    Ts   0.22915   0.61990   0.33199   1.000
loop_
    _geom_bond_atom_site_label_1
    _geom_bond_atom_site_label_2
    _geom_bond_distance
    _geom_bond_site_symmetry_2
    _ccdc_geom_bond_type
    Cd0    Ts4       0.78266      .   S
    Cd0    Ts5       0.78276      .   S
    Cd0    Ts6       0.78208      .   S
    Cd0    Ts7       0.78215      .   S
    Cd0    Ts8       0.78250      .   S
    Cd0    Ts9       0.78269      .   S
    Cd1    Ts10      0.78264      .   S
    Cd1    Ts11      0.78278      .   S
    Cd1    Ts12      0.78206      .   S
    Cd1    Ts13      0.78214      .   S
    Cd1    Ts14      0.78248      .   S
    Cd1    Ts15      0.78269      .   S
    Cd2    Ts16      0.78206      .   S
    Cd2    Ts17      0.78297      .   S
    Cd2    Ts18      0.78212      .   S
    Cd2    Ts19      0.78277      .   S
    Cd2    Ts20      0.78222      .   S
    Cd2    Ts21      0.78233      .   S
    Cd3    Ts22      0.78206      .   S
    Cd3    Ts23      0.78297      .   S
    Cd3    Ts24      0.78218      .   S
    Cd3    Ts25      0.78277      .   S
    Cd3    Ts26      0.78208      .   S
    Cd3    Ts27      0.78234      .   S
