# CIF file generated by openbabel 2.4.90, see http://openbabel.sf.net
data_I
_chemical_name_common ''
_cell_length_a 16.072
_cell_length_b 18.863
_cell_length_c 18.379
_cell_angle_alpha 90.289
_cell_angle_beta 90.035
_cell_angle_gamma 89.883
_space_group_name_H-M_alt 'P 1'
_space_group_name_Hall 'P 1'
loop_
    _symmetry_equiv_pos_as_xyz
    x,y,z
loop_
    _atom_site_label
    _atom_site_type_symbol
    _atom_site_fract_x
    _atom_site_fract_y
    _atom_site_fract_z
    _atom_site_occupancy
    C0      C    0.12917   0.33015   0.74196   1.000
    C1      C    0.07477   0.64042   0.88950   1.000
    C2      C    0.63183   0.67135   0.74388   1.000
    C3      C    0.92734   0.86083   0.38979   1.000
    C4      C    0.42725   0.13906   0.39003   1.000
    C5      C    0.13146   0.83127   0.75650   1.000
    C6      C    0.42774   0.63763   0.10900   1.000
    C7      C    0.36815   0.32863   0.25613   1.000
    C8      C    0.07271   0.13917   0.61027   1.000
    C9      C    0.37090   0.82872   0.24330   1.000
    C10     C    0.92518   0.35957   0.11051   1.000
    C11     C    0.62916   0.17121   0.75671   1.000
    C12     C    0.57276   0.86093   0.61000   1.000
    C13     C    0.86854   0.16873   0.24351   1.000
    C14     C    0.57225   0.36233   0.89010   1.000
    C15     C    0.87077   0.66986   0.25803   1.000
