# CIF file generated by openbabel 2.4.90, see http://openbabel.sf.net
data_I
_chemical_name_common ''
_cell_length_a 16.072
_cell_length_b 18.863
_cell_length_c 18.379
_cell_angle_alpha 90.289
_cell_angle_beta 90.035
_cell_angle_gamma 89.883
_space_group_name_H-M_alt 'P 1'
_space_group_name_Hall 'P 1'
loop_
    _symmetry_equiv_pos_as_xyz
    x,y,z
loop_
    _atom_site_label
    _atom_site_type_symbol
    _atom_site_fract_x
    _atom_site_fract_y
    _atom_site_fract_z
    _atom_site_occupancy
    N0      N    0.34542   0.99168   0.61801   1.000
    N1      N    0.24958   0.32254   0.49888   1.000
    N2      N    0.74924   0.17694   0.00027   1.000
    N3      N    0.75007   0.67742   0.50108   1.000
    N4      N    0.25072   0.82275   0.99971   1.000
    N5      N    0.65637   0.50784   0.12044   1.000
    N6      N    0.65459   0.00832   0.38201   1.000
    N7      N    0.84439   0.50907   0.88317   1.000
    N8      N    0.34363   0.49211   0.87954   1.000
    N9      N    0.84359   0.00806   0.61862   1.000
    N10     N    0.15516   0.49092   0.11684   1.000
    N11     N    0.15602   0.99074   0.38143   1.000
    Zr12    Zr   0.41634   0.23057   0.31146   1.000
    O13     O    0.40079   0.14327   0.41660   1.000
    O14     O    0.33018   0.32571   0.24533   1.000
    Zr15    Zr   0.41827   0.72989   0.18829   1.000
    O16     O    0.33199   0.82537   0.25385   1.000
    O17     O    0.40136   0.64276   0.08243   1.000
    Zr18    Zr   0.91559   0.26722   0.18860   1.000
    O19     O    0.82973   0.17239   0.25425   1.000
    O20     O    0.89972   0.35554   0.08388   1.000
    Zr21    Zr   0.58365   0.76942   0.68856   1.000
    O22     O    0.59921   0.85672   0.58341   1.000
    O23     O    0.66969   0.67428   0.75468   1.000
    Zr24    Zr   0.58174   0.27005   0.81159   1.000
    O25     O    0.66795   0.17429   0.74611   1.000
    O26     O    0.59865   0.35719   0.91739   1.000
    Zr27    Zr   0.08195   0.73278   0.81141   1.000
    O28     O    0.09893   0.64446   0.91613   1.000
    O29     O    0.16905   0.82761   0.74576   1.000
    Zr30    Zr   0.07996   0.23158   0.68800   1.000
    O31     O    0.16704   0.32696   0.75281   1.000
    O32     O    0.09777   0.14353   0.58303   1.000
    Zr33    Zr   0.91809   0.76842   0.31201   1.000
    O34     O    0.90118   0.85617   0.41701   1.000
    O35     O    0.83198   0.67302   0.24719   1.000
    O36     O    0.02389   0.78785   0.21850   1.000
    O37     O    0.52378   0.71076   0.28192   1.000
    O38     O    0.97511   0.21207   0.78151   1.000
    O39     O    0.52197   0.21102   0.21836   1.000
    O40     O    0.47801   0.78889   0.78165   1.000
    O41     O    0.47614   0.28918   0.71795   1.000
    O42     O    0.02172   0.28713   0.28138   1.000
    O43     O    0.97696   0.71286   0.71862   1.000
loop_
    _geom_bond_atom_site_label_1
    _geom_bond_atom_site_label_2
    _geom_bond_distance
    _geom_bond_site_symmetry_2
    _ccdc_geom_bond_type
    Zr12   O13       2.55795      .   S
    N0     O13       4.77404  1_565   S
    Zr12   O14       2.57387      .   S
    N10    O14       4.81998      .   S
    Zr15   O16       2.56680      .   S
    N11    O16       4.80899      .   S
    Zr15   O17       2.55532      .   S
    N8     O17       4.76871  1_556   S
    Zr18   O19       2.56794      .   S
    N6     O19       4.80956      .   S
    Zr18   O20       2.56406      .   S
    N7     O20       4.78327  1_556   S
    Zr21   O22       2.55810      .   S
    N6     O22       4.77407  1_545   S
    Zr21   O23       2.57286      .   S
    N7     O23       4.81679      .   S
    Zr24   O25       2.56913      .   S
    N9     O25       4.81544      .   S
    Zr24   O26       2.55455      .   S
    N5     O26       4.77093  1_554   S
    Zr27   O28       2.56587      .   S
    N10    O28       4.78595  1_554   S
    Zr27   O29       2.57861      .   S
    N0     O29       4.82118      .   S
    Zr30   O31       2.56915      .   S
    N8     O31       4.81033      .   S
    Zr30   O32       2.55526      .   S
    N11    O32       4.77454  1_565   S
    Zr33   O34       2.55036      .   S
    N9     O34       4.76260  1_545   S
    Zr33   O35       2.56106      .   S
    N5     O35       4.80173      .   S
    Zr33   O36       2.44788  1_655   S
    N4     O36       5.47246  1_556   S
    Zr15   O37       2.44282      .   S
    N3     O37       5.46317      .   S
    Zr30   O38       2.43740  1_455   S
    N2     O38       5.46240  1_554   S
    Zr12   O39       2.43733      .   S
    N2     O39       5.45925      .   S
    Zr21   O40       2.43707      .   S
    N4     O40       5.45859      .   S
    N1     O41       5.46471      .   S
    Zr24   O41       2.44399      .   S
    N1     O42       5.45917      .   S
    Zr18   O42       2.43939  1_655   S
    Zr27   O43       2.42686  1_455   S
    N3     O43       5.44925      .   S
