# CIF file generated by openbabel 2.4.90, see http://openbabel.sf.net
data_I
_chemical_name_common ''
_cell_length_a 16.072
_cell_length_b 18.863
_cell_length_c 18.379
_cell_angle_alpha 90.289
_cell_angle_beta 90.035
_cell_angle_gamma 89.883
_space_group_name_H-M_alt 'P 1'
_space_group_name_Hall 'P 1'
loop_
    _symmetry_equiv_pos_as_xyz
    x,y,z
loop_
    _atom_site_label
    _atom_site_type_symbol
    _atom_site_fract_x
    _atom_site_fract_y
    _atom_site_fract_z
    _atom_site_occupancy
    Zr0     Zr   0.47145   0.71632   0.22195   1.000
    Zr1     Zr   0.03147   0.71920   0.77817   1.000
    Zr2     Zr   0.02833   0.21898   0.72175   1.000
    Zr3     Zr   0.46847   0.21641   0.27808   1.000
    Zr4     Zr   0.97163   0.78101   0.27827   1.000
    Zr5     Zr   0.53151   0.78358   0.72193   1.000
    Zr6     Zr   0.52857   0.28363   0.77805   1.000
    Zr7     Zr   0.96853   0.28080   0.22184   1.000
    Zr8     Zr   0.42725   0.13906   0.39003   1.000
    Zr9     Zr   0.13146   0.83127   0.75650   1.000
    Zr10    Zr   0.42774   0.63763   0.10900   1.000
    Zr11    Zr   0.12917   0.33015   0.74196   1.000
    Zr12    Zr   0.07477   0.64042   0.88950   1.000
    Zr13    Zr   0.36815   0.32863   0.25613   1.000
    Zr14    Zr   0.07271   0.13917   0.61027   1.000
    Zr15    Zr   0.37090   0.82872   0.24330   1.000
    Zr16    Zr   0.92518   0.35957   0.11051   1.000
    Zr17    Zr   0.63183   0.67135   0.74388   1.000
    Zr18    Zr   0.92734   0.86083   0.38979   1.000
    Zr19    Zr   0.62916   0.17121   0.75671   1.000
    Zr20    Zr   0.57276   0.86093   0.61000   1.000
    Zr21    Zr   0.86854   0.16873   0.24351   1.000
    Zr22    Zr   0.57225   0.36233   0.89010   1.000
    Zr23    Zr   0.87077   0.66986   0.25803   1.000
    Zr24    Zr   0.48594   0.18563   0.38131   1.000
    Zr25    Zr   0.37469   0.12624   0.34053   1.000
    Zr26    Zr   0.07973   0.85789   0.79994   1.000
    Zr27    Zr   0.12934   0.76573   0.73448   1.000
    Zr28    Zr   0.48606   0.68471   0.11878   1.000
    Zr29    Zr   0.37594   0.62381   0.15946   1.000
    Zr30    Zr   0.07709   0.35518   0.69800   1.000
    Zr31    Zr   0.12715   0.26537   0.76545   1.000
    Zr32    Zr   0.00000   0.68820   0.88129   1.000
    Zr33    Zr   0.12691   0.62673   0.83999   1.000
    Zr34    Zr   0.41989   0.35504   0.29964   1.000
    Zr35    Zr   0.36999   0.26298   0.23447   1.000
    Zr36    Zr   0.00000   0.18567   0.61898   1.000
    Zr37    Zr   0.12530   0.12657   0.65962   1.000
    Zr38    Zr   0.42320   0.85477   0.20040   1.000
    Zr39    Zr   0.37263   0.76331   0.26511   1.000
    Zr40    Zr   0.98298   0.31181   0.11873   1.000
    Zr41    Zr   0.87302   0.37326   0.16000   1.000
    Zr42    Zr   0.58009   0.64495   0.70036   1.000
    Zr43    Zr   0.62998   0.73700   0.76555   1.000
    Zr44    Zr   0.98650   0.81432   0.38104   1.000
    Zr45    Zr   0.87472   0.87343   0.34047   1.000
    Zr46    Zr   0.57687   0.14516   0.79962   1.000
    Zr47    Zr   0.62740   0.23661   0.73488   1.000
    Zr48    Zr   0.51406   0.81437   0.61871   1.000
    Zr49    Zr   0.62531   0.87376   0.65950   1.000
    Zr50    Zr   0.92026   0.14211   0.20007   1.000
    Zr51    Zr   0.87066   0.23427   0.26553   1.000
    Zr52    Zr   0.51393   0.31524   0.88121   1.000
    Zr53    Zr   0.62402   0.37616   0.84053   1.000
    Zr54    Zr   0.92291   0.64483   0.30194   1.000
    Zr55    Zr   0.87273   0.73466   0.23450   1.000
    O56     O    0.45690   0.66117   0.11389   1.000
    O57     O    0.40184   0.63072   0.13423   1.000
    O58     O    0.95408   0.33569   0.11462   1.000
    O59     O    0.89910   0.36642   0.13526   1.000
    O60     O    0.97575   0.29631   0.17028   1.000
    O61     O    0.47875   0.70051   0.17037   1.000
    O62     O    0.89440   0.15542   0.22179   1.000
    O63     O    0.39705   0.84175   0.22185   1.000
    O64     O    0.91959   0.25753   0.24369   1.000
    O65     O    0.42204   0.73981   0.24353   1.000
    O66     O    0.36907   0.29581   0.24530   1.000
    O67     O    0.41923   0.23969   0.25627   1.000
    O68     O    0.87175   0.70226   0.24626   1.000
    O69     O    0.92218   0.75783   0.25638   1.000
    O70     O    0.37176   0.79601   0.25421   1.000
    O71     O    0.86960   0.20150   0.25452   1.000
    O72     O    0.39402   0.34184   0.27788   1.000
    O73     O    0.89684   0.65734   0.27998   1.000
    O74     O    0.47720   0.20102   0.32969   1.000
    O75     O    0.97907   0.79767   0.32965   1.000
    O76     O    0.90103   0.86713   0.36513   1.000
    O77     O    0.40097   0.13265   0.36528   1.000
    O78     O    0.95692   0.83758   0.38541   1.000
    O79     O    0.45659   0.16234   0.38567   1.000
    O80     O    0.54341   0.83765   0.61435   1.000
    O81     O    0.59903   0.86735   0.63475   1.000
    O82     O    0.03635   0.16242   0.61462   1.000
    O83     O    0.09901   0.13287   0.63494   1.000
    O84     O    0.52278   0.79897   0.67032   1.000
    O85     O    0.01416   0.20232   0.67036   1.000
    O86     O    0.10313   0.34266   0.71998   1.000
    O87     O    0.60596   0.65815   0.72212   1.000
    O88     O    0.07774   0.24218   0.74360   1.000
    O89     O    0.58074   0.76029   0.74374   1.000
    O90     O    0.13040   0.79850   0.74549   1.000
    O91     O    0.08040   0.74247   0.75633   1.000
    O92     O    0.62828   0.20391   0.74579   1.000
    O93     O    0.57799   0.26012   0.75647   1.000
    O94     O    0.12816   0.29776   0.75370   1.000
    O95     O    0.63091   0.70418   0.75471   1.000
    O96     O    0.10560   0.84458   0.77822   1.000
    O97     O    0.60302   0.15818   0.77816   1.000
    O98     O    0.52125   0.29944   0.82963   1.000
    O99     O    0.01573   0.70370   0.82973   1.000
    O100    O    0.10084   0.63358   0.86474   1.000
    O101    O    0.59813   0.36924   0.86531   1.000
    O102    O    0.54309   0.33878   0.88565   1.000
    O103    O    0.03738   0.66431   0.88539   1.000
    N104    N    0.34542   0.99168   0.61801   1.000
    O105    O    0.25614   0.92244   0.68011   1.000
    O106    O    0.38523   0.05597   0.52175   1.000
    N107    N    0.24958   0.32254   0.49888   1.000
    O108    O    0.12010   0.32319   0.37684   1.000
    O109    O    0.37842   0.32435   0.62145   1.000
    O110    O    0.36265   0.29229   0.62716   1.000
    O111    O    0.13560   0.29089   0.37146   1.000
    N112    N    0.74924   0.17694   0.00027   1.000
    O113    O    0.87830   0.17655   0.87769   1.000
    O114    O    0.86223   0.20858   0.87234   1.000
    O115    O    0.63526   0.20760   0.12799   1.000
    O116    O    0.61993   0.17533   0.12252   1.000
    N117    N    0.75007   0.67742   0.50108   1.000
    O118    O    0.86422   0.70909   0.62851   1.000
    O119    O    0.63717   0.70766   0.37284   1.000
    O120    O    0.87972   0.67678   0.62315   1.000
    O121    O    0.62142   0.67559   0.37825   1.000
    N122    N    0.25072   0.82275   0.99971   1.000
    O123    O    0.13772   0.79125   0.12765   1.000
    O124    O    0.38003   0.82450   0.87748   1.000
    O125    O    0.12167   0.82330   0.12232   1.000
    O126    O    0.36471   0.79223   0.87199   1.000
    N127    N    0.65637   0.50784   0.12044   1.000
    O128    O    0.74587   0.57763   0.18237   1.000
    O129    O    0.61555   0.44433   0.02319   1.000
    N130    N    0.65459   0.00832   0.38201   1.000
    O131    O    0.74386   0.07756   0.31991   1.000
    O132    O    0.61478   0.94402   0.47825   1.000
    N133    N    0.84439   0.50907   0.88317   1.000
    O134    O    0.75574   0.57914   0.82079   1.000
    O135    O    0.88384   0.44385   0.97916   1.000
    N136    N    0.34363   0.49211   0.87954   1.000
    O137    O    0.25411   0.42234   0.81762   1.000
    O138    O    0.38445   0.55562   0.97657   1.000
    N139    N    0.84359   0.00806   0.61862   1.000
    O140    O    0.75415   0.07853   0.68063   1.000
    O141    O    0.88427   0.94392   0.52201   1.000
    N142    N    0.15516   0.49092   0.11684   1.000
    O143    O    0.11591   0.55614   0.02085   1.000
    O144    O    0.24402   0.42085   0.17921   1.000
    N145    N    0.15602   0.99074   0.38143   1.000
    O146    O    0.11557   0.05548   0.47805   1.000
    O147    O    0.24570   0.92084   0.31941   1.000
loop_
    _geom_bond_atom_site_label_1
    _geom_bond_atom_site_label_2
    _geom_bond_distance
    _geom_bond_site_symmetry_2
    _ccdc_geom_bond_type
    Zr10   O56       0.65216      .   S
    Zr28   O56       0.65216      .   S
    Zr10   O57       0.63743      .   S
    Zr29   O57       0.63743      .   S
    Zr16   O58       0.65099      .   S
    Zr40   O58       0.65099      .   S
    Zr16   O59       0.63137      .   S
    Zr41   O59       0.63137      .   S
    Zr40   O60       0.99997      .   S
    Zr7    O60       0.99997      .   S
    Zr28   O61       0.99933      .   S
    Zr0    O61       0.99933      .   S
    Zr50   O62       0.62765      .   S
    Zr21   O62       0.62765      .   S
    Zr38   O63       0.62774      .   S
    Zr15   O63       0.62774      .   S
    Zr7    O64       0.98788      .   S
    Zr51   O64       0.98788      .   S
    Zr0    O65       0.99075      .   S
    Zr39   O65       0.99075      .   S
    Zr35   O66       0.64954      .   S
    Zr13   O66       0.64954      .   S
    Zr35   O67       0.98990      .   S
    Zr3    O67       0.98990      .   S
    Zr55   O68       0.64951      .   S
    Zr23   O68       0.64951      .   S
    Zr55   O69       0.99184      .   S
    Zr4    O69       0.99184      .   S
    Zr15   O70       0.64969      .   S
    Zr39   O70       0.64969      .   S
    Zr21   O71       0.64964      .   S
    Zr51   O71       0.64964      .   S
    Zr13   O72       0.62774      .   S
    Zr34   O72       0.62774      .   S
    Zr23   O73       0.62804      .   S
    Zr54   O73       0.62804      .   S
    Zr3    O74       1.00316      .   S
    Zr24   O74       1.00316      .   S
    Zr4    O75       1.00097      .   S
    Zr44   O75       1.00097      .   S
    Zr45   O76       0.63127      .   S
    Zr18   O76       0.63127      .   S
    Zr25   O77       0.63195      .   S
    Zr8    O77       0.63195      .   S
    Zr44   O78       0.65091      .   S
    Zr18   O78       0.65091      .   S
    Zr24   O79       0.65040      .   S
    Zr8    O79       0.65040      .   S
    Zr20   O80       0.65041      .   S
    Zr48   O80       0.65041      .   S
    Zr20   O81       0.63190      .   S
    Zr49   O81       0.63190      .   S
    Zr14   O82       0.73402      .   S
    Zr36   O82       0.73402      .   S
    Zr14   O83       0.63126      .   S
    Zr37   O83       0.63126      .   S
    Zr48   O84       1.00309      .   S
    Zr5    O84       1.00309      .   S
    Zr36   O85       1.01955      .   S
    Zr2    O85       1.01955      .   S
    Zr30   O86       0.62805      .   S
    Zr11   O86       0.62805      .   S
    Zr42   O87       0.62774      .   S
    Zr17   O87       0.62774      .   S
    Zr2    O88       0.99127      .   S
    Zr31   O88       0.99127      .   S
    Zr5    O89       0.98987      .   S
    Zr43   O89       0.98987      .   S
    Zr27   O90       0.64963      .   S
    Zr9    O90       0.64963      .   S
    Zr27   O91       0.98791      .   S
    Zr1    O91       0.98791      .   S
    Zr47   O92       0.64971      .   S
    Zr19   O92       0.64971      .   S
    Zr47   O93       0.99092      .   S
    Zr6    O93       0.99092      .   S
    Zr11   O94       0.64923      .   S
    Zr31   O94       0.64923      .   S
    Zr17   O95       0.64954      .   S
    Zr43   O95       0.64954      .   S
    Zr9    O96       0.62767      .   S
    Zr26   O96       0.62767      .   S
    Zr19   O97       0.62771      .   S
    Zr46   O97       0.62771      .   S
    Zr6    O98       0.99928      .   S
    Zr52   O98       0.99928      .   S
    Zr1    O99       1.02510      .   S
    Zr32   O99       1.02510      .   S
    Zr33   O100      0.63142      .   S
    Zr12   O100      0.63142      .   S
    Zr53   O101      0.63144      .   S
    Zr22   O101      0.63144      .   S
    Zr52   O102      0.65110      .   S
    Zr22   O102      0.65110      .   S
    Zr32   O103      0.75425      .   S
    Zr12   O103      0.75425      .   S
    N104   O105      2.25656      .   S
    Zr9    O105      2.99777      .   S
    N104   O106      2.24413  1_565   S
    Zr8    O106      2.96943      .   S
    N107   O108      3.05871      .   S
    Zr7    O108      3.82966  1_655   S
    N107   O109      3.05901      .   S
    Zr6    O109      3.83453      .   S
    N107   O110      3.03158      .   S
    Zr6    O110      3.84999      .   S
    N107   O111      3.03007      .   S
    Zr7    O111      3.84663  1_655   S
    N112   O113      3.06323  1_554   S
    Zr2    O113      3.83518  1_455   S
    N112   O114      3.03423  1_554   S
    Zr2    O114      3.85238  1_455   S
    N112   O115      3.03112      .   S
    Zr3    O115      3.85034      .   S
    N112   O116      3.06182      .   S
    Zr3    O116      3.83129      .   S
    N117   O118      3.03192      .   S
    Zr1    O118      3.84906  1_455   S
    N117   O119      3.02949      .   S
    Zr0    O119      3.84771      .   S
    N117   O120      3.06092      .   S
    Zr1    O120      3.83179  1_455   S
    N117   O121      3.06045      .   S
    Zr0    O121      3.82870      .   S
    N122   O123      3.03394  1_556   S
    Zr4    O123      3.85261  1_655   S
    N122   O124      3.06159      .   S
    Zr5    O124      3.83072      .   S
    N122   O125      3.06358  1_556   S
    Zr4    O125      3.83488  1_655   S
    N122   O126      3.03059      .   S
    Zr5    O126      3.85005      .   S
    N127   O128      2.25579      .   S
    Zr23   O128      2.99612      .   S
    N127   O129      2.24501      .   S
    Zr22   O129      2.97054  1_556   S
    N130   O131      2.25651      .   S
    Zr21   O131      2.99774      .   S
    N130   O132      2.24398  1_545   S
    Zr20   O132      2.96988      .   S
    N133   O134      2.25753      .   S
    Zr17   O134      2.99952      .   S
    N133   O135      2.24626      .   S
    Zr16   O135      2.97132  1_554   S
    N136   O137      2.25563      .   S
    Zr11   O137      2.99598      .   S
    N136   O138      2.24192      .   S
    Zr10   O138      2.96062  1_554   S
    N139   O140      2.26072      .   S
    Zr19   O140      3.00189      .   S
    N139   O141      2.24074  1_545   S
    Zr18   O141      2.96649      .   S
    N142   O143      2.24532      .   S
    Zr12   O143      2.97060  1_556   S
    N142   O144      2.25980      .   S
    Zr13   O144      3.00189      .   S
    N145   O146      2.24577  1_565   S
    Zr14   O146      2.97159      .   S
    N145   O147      2.25711      .   S
    Zr15   O147      2.99841      .   S
