# CIF file generated by openbabel 2.4.90, see http://openbabel.sf.net
data_I
_chemical_name_common ''
_cell_length_a 16.072
_cell_length_b 18.863
_cell_length_c 18.379
_cell_angle_alpha 90.289
_cell_angle_beta 90.035
_cell_angle_gamma 89.883
_space_group_name_H-M_alt 'P 1'
_space_group_name_Hall 'P 1'
loop_
    _symmetry_equiv_pos_as_xyz
    x,y,z
loop_
    _atom_site_label
    _atom_site_type_symbol
    _atom_site_fract_x
    _atom_site_fract_y
    _atom_site_fract_z
    _atom_site_occupancy
    C0      C    0.47145   0.71632   0.22195   1.000
    C1      C    0.03147   0.71920   0.77817   1.000
    C2      C    0.02833   0.21898   0.72175   1.000
    C3      C    0.46847   0.21641   0.27808   1.000
    C4      C    0.97163   0.78101   0.27827   1.000
    C5      C    0.53151   0.78358   0.72193   1.000
    C6      C    0.52857   0.28363   0.77805   1.000
    C7      C    0.96853   0.28080   0.22184   1.000
    C8      C    0.83061   0.69368   0.51637   1.000
    C9      C    0.82257   0.78663   0.52302   1.000
    C10     C    0.70119   0.76754   0.61439   1.000
    C11     C    0.73179   0.67829   0.61925   1.000
    C12     C    0.74126   0.85162   0.31960   1.000
    C13     C    0.80116   0.76368   0.38674   1.000
    C14     C    0.76815   0.67504   0.38354   1.000
    C15     C    0.82342   0.60648   0.59974   1.000
    C16     C    0.27819   0.04392   0.73980   1.000
    C17     C    0.52383   0.15829   0.51182   1.000
    C18     C    0.66961   0.69583   0.48610   1.000
    C19     C    0.68114   0.78827   0.47805   1.000
    C20     C    0.90349   0.86850   0.77070   1.000
    C21     C    0.16051   0.96863   0.78394   1.000
    C22     C    0.51035   0.09523   0.63081   1.000
    C23     C    0.15952   0.46623   0.70977   1.000
    C24     C    0.27659   0.54310   0.75310   1.000
    C25     C    0.30341   0.47577   0.95260   1.000
    C26     C    0.30787   0.97246   0.54330   1.000
    C27     C    0.00000   0.46072   0.66821   1.000
    C28     C    0.67400   0.60604   0.40590   1.000
    C29     C    0.26002   0.79012   0.66790   1.000
    C30     C    0.25674   0.29232   0.83267   1.000
    C31     C    0.07545   0.56062   0.74361   1.000
    C32     C    0.76220   0.85549   0.68063   1.000
    C33     C    0.38061   0.86403   0.62617   1.000
    C34     C    0.60893   0.48738   0.41287   1.000
    C35     C    0.37678   0.36760   0.87367   1.000
    C36     C    0.51119   0.59342   0.86878   1.000
    C37     C    0.32185   0.03597   0.42509   1.000
    C38     C    0.88711   0.48696   0.59340   1.000
    C39     C    0.60059   0.86443   0.22870   1.000
    C40     C    0.31913   0.53753   0.07214   1.000
    C41     C    0.42604   0.55897   0.25696   1.000
    C42     C    0.48260   0.46042   0.33531   1.000
    C43     C    0.52627   0.65502   0.98903   1.000
    C44     C    0.66898   0.19314   0.01524   1.000
    C45     C    0.67661   0.28600   0.02298   1.000
    C46     C    0.79819   0.26568   0.11425   1.000
    C47     C    0.76750   0.17652   0.11820   1.000
    C48     C    0.75694   0.35272   0.81966   1.000
    C49     C    0.69802   0.26433   0.88640   1.000
    C50     C    0.73157   0.17579   0.88237   1.000
    C51     C    0.67551   0.10514   0.09700   1.000
    C52     C    0.22329   0.54258   0.23732   1.000
    C53     C    0.97799   0.65974   0.01139   1.000
    C54     C    0.83003   0.19562   0.98520   1.000
    C55     C    0.81798   0.28813   0.97811   1.000
    C56     C    0.59563   0.36599   0.27115   1.000
    C57     C    0.34038   0.46654   0.28204   1.000
    C58     C    0.99086   0.59554   0.12983   1.000
    C59     C    0.34016   0.96520   0.21340   1.000
    C60     C    0.22227   0.04135   0.25699   1.000
    C61     C    0.19651   0.97481   0.45480   1.000
    C62     C    0.19237   0.47150   0.04171   1.000
    C63     C    0.48471   0.95898   0.16658   1.000
    C64     C    0.82587   0.10679   0.90416   1.000
    C65     C    0.23895   0.28801   0.16782   1.000
    C66     C    0.24331   0.78963   0.33336   1.000
    C67     C    0.42525   0.05838   0.24293   1.000
    C68     C    0.73678   0.35351   0.18095   1.000
    C69     C    0.11887   0.36268   0.12559   1.000
    C70     C    0.89191   0.98826   0.91056   1.000
    C71     C    0.12266   0.86440   0.37489   1.000
    C72     C    0.98795   0.09171   0.37014   1.000
    C73     C    0.17879   0.53605   0.92385   1.000
    C74     C    0.61228   0.98567   0.09089   1.000
    C75     C    0.89744   0.36650   0.72904   1.000
    C76     C    0.18163   0.03856   0.57353   1.000
    C77     C    0.07526   0.06154   0.75642   1.000
    C78     C    0.01894   0.96222   0.83359   1.000
    C79     C    0.97365   0.15519   0.48946   1.000
    C80     C    0.33098   0.80675   0.98472   1.000
    C81     C    0.32330   0.71389   0.97703   1.000
    C82     C    0.20178   0.73418   0.88572   1.000
    C83     C    0.23242   0.82335   0.88177   1.000
    C84     C    0.24297   0.64723   0.18030   1.000
    C85     C    0.30192   0.73562   0.11352   1.000
    C86     C    0.26838   0.82417   0.11760   1.000
    C87     C    0.32442   0.89475   0.90241   1.000
    C88     C    0.77672   0.45741   0.76268   1.000
    C89     C    0.02197   0.34024   0.98862   1.000
    C90     C    0.16993   0.80434   0.01477   1.000
    C91     C    0.18193   0.71183   0.02189   1.000
    C92     C    0.40436   0.63395   0.72880   1.000
    C93     C    0.65961   0.53344   0.71797   1.000
    C94     C    0.00000   0.40444   0.87018   1.000
    C95     C    0.66013   0.03472   0.78671   1.000
    C96     C    0.77814   0.95869   0.74316   1.000
    C97     C    0.80356   0.00000   0.54530   1.000
    C98     C    0.80763   0.52851   0.95829   1.000
    C99     C    0.51527   0.04092   0.83356   1.000
    C100    C    0.17410   0.89319   0.09586   1.000
    C101    C    0.76102   0.71198   0.83219   1.000
    C102    C    0.75669   0.21033   0.66662   1.000
    C103    C    0.57473   0.94156   0.75716   1.000
    C104    C    0.26320   0.64639   0.81900   1.000
    C105    C    0.88111   0.63732   0.87442   1.000
    C106    C    0.10811   0.01175   0.08952   1.000
    C107    C    0.87743   0.13567   0.62512   1.000
    C108    C    0.00000   0.90850   0.62980   1.000
    C109    C    0.82119   0.46396   0.07610   1.000
    C110    C    0.38767   0.01420   0.90920   1.000
    C111    C    0.10248   0.63345   0.27090   1.000
    C112    C    0.81833   0.96131   0.42666   1.000
    C113    C    0.92477   0.93847   0.24368   1.000
    C114    C    0.98111   0.03780   0.16652   1.000
    C115    C    0.02665   0.84496   0.51051   1.000
    C116    C    0.16938   0.30628   0.48365   1.000
    C117    C    0.17742   0.21333   0.47699   1.000
    C118    C    0.29880   0.23242   0.38563   1.000
    C119    C    0.26822   0.32168   0.38078   1.000
    C120    C    0.25865   0.14835   0.68046   1.000
    C121    C    0.19882   0.23624   0.61327   1.000
    C122    C    0.23180   0.32488   0.61649   1.000
    C123    C    0.17659   0.39349   0.40026   1.000
    C124    C    0.72183   0.95608   0.26026   1.000
    C125    C    0.47616   0.84172   0.48821   1.000
    C126    C    0.33036   0.30414   0.51395   1.000
    C127    C    0.31885   0.21170   0.52197   1.000
    C128    C    0.09654   0.13150   0.22921   1.000
    C129    C    0.83950   0.03136   0.21610   1.000
    C130    C    0.48964   0.90480   0.36923   1.000
    C131    C    0.84047   0.53378   0.29026   1.000
    C132    C    0.72344   0.45686   0.24686   1.000
    C133    C    0.69661   0.52414   0.04700   1.000
    C134    C    0.69219   0.02751   0.45664   1.000
    C135    C    0.98444   0.53927   0.33180   1.000
    C136    C    0.32591   0.39393   0.59420   1.000
    C137    C    0.73998   0.20989   0.33210   1.000
    C138    C    0.74321   0.70764   0.16729   1.000
    C139    C    0.92455   0.43936   0.25641   1.000
    C140    C    0.23781   0.14450   0.31937   1.000
    C141    C    0.61939   0.13598   0.37385   1.000
    C142    C    0.39101   0.51258   0.58725   1.000
    C143    C    0.62321   0.63230   0.12629   1.000
    C144    C    0.48882   0.40650   0.13123   1.000
    C145    C    0.67820   0.96399   0.57493   1.000
    C146    C    0.11291   0.51302   0.40660   1.000
    C147    C    0.39931   0.13552   0.77133   1.000
    C148    C    0.68087   0.46240   0.92786   1.000
    C149    C    0.57405   0.44089   0.74297   1.000
    C150    C    0.51744   0.53948   0.66400   1.000
    C151    C    0.47373   0.34492   0.01097   1.000
    C152    C    0.61617   0.71699   0.31498   1.000
    C153    C    0.42725   0.13906   0.39003   1.000
    C154    C    0.78681   0.73723   0.52836   1.000
    C155    C    0.75422   0.73169   0.60630   1.000
    C156    C    0.88528   0.71927   0.68682   1.000
    C157    C    0.68941   0.81649   0.30804   1.000
    C158    C    0.74721   0.72928   0.39555   1.000
    C159    C    0.91648   0.64753   0.67407   1.000
    C160    C    0.13146   0.83127   0.75650   1.000
    C161    C    0.20226   0.87514   0.72791   1.000
    C162    C    0.19998   0.37500   0.76944   1.000
    C163    C    0.40583   0.53191   0.90362   1.000
    C164    C    0.42774   0.63763   0.10900   1.000
    C165    C    0.33466   0.95833   0.67962   1.000
    C166    C    0.40781   0.03099   0.59402   1.000
    C167    C    0.87982   0.59540   0.63017   1.000
    C168    C    0.27347   0.98848   0.72390   1.000
    C169    C    0.47666   0.11755   0.51907   1.000
    C170    C    0.71504   0.73769   0.47345   1.000
    C171    C    0.33183   0.45996   0.81692   1.000
    C172    C    0.58392   0.64594   0.32842   1.000
    C173    C    0.88190   0.82469   0.73749   1.000
    C174    C    0.42279   0.60063   0.03821   1.000
    C175    C    0.20801   0.94666   0.74810   1.000
    C176    C    0.46953   0.08270   0.58521   1.000
    C177    C    0.20638   0.44560   0.74684   1.000
    C178    C    0.27153   0.48830   0.77071   1.000
    C179    C    0.35186   0.51521   0.96050   1.000
    C180    C    0.35466   0.01346   0.53649   1.000
    C181    C    0.98690   0.51326   0.66753   1.000
    C182    C    0.61857   0.59467   0.37422   1.000
    C183    C    0.42284   0.10147   0.46095   1.000
    C184    C    0.26407   0.84598   0.68280   1.000
    C185    C    0.26115   0.34755   0.81613   1.000
    C186    C    0.02066   0.56795   0.70945   1.000
    C187    C    0.81351   0.81989   0.69263   1.000
    C188    C    0.33069   0.88709   0.65881   1.000
    C189    C    0.58189   0.52781   0.37770   1.000
    C190    C    0.32748   0.38948   0.83968   1.000
    C191    C    0.46959   0.58162   0.91387   1.000
    C192    C    0.36257   0.04879   0.47060   1.000
    C193    C    0.91568   0.52805   0.62701   1.000
    C194    C    0.62135   0.82115   0.26281   1.000
    C195    C    0.36076   0.54961   0.02721   1.000
    C196    C    0.47991   0.56654   0.29219   1.000
    C197    C    0.51182   0.51263   0.33583   1.000
    C198    C    0.47762   0.61567   0.98075   1.000
    C199    C    0.12917   0.33015   0.74196   1.000
    C200    C    0.88340   0.21860   0.81451   1.000
    C201    C    0.07477   0.64042   0.88950   1.000
    C202    C    0.71260   0.23654   0.02777   1.000
    C203    C    0.74513   0.23013   0.10575   1.000
    C204    C    0.61414   0.21734   0.18609   1.000
    C205    C    0.80916   0.31784   0.80798   1.000
    C206    C    0.75221   0.22993   0.89494   1.000
    C207    C    0.58313   0.14570   0.17294   1.000
    C208    C    0.36815   0.32863   0.25613   1.000
    C209    C    0.29764   0.37294   0.22705   1.000
    C210    C    0.29985   0.87316   0.27148   1.000
    C211    C    0.09354   0.03039   0.40550   1.000
    C212    C    0.07271   0.13917   0.61027   1.000
    C213    C    0.16570   0.45704   0.17809   1.000
    C214    C    0.09293   0.53067   0.09266   1.000
    C215    C    0.61950   0.09386   0.12837   1.000
    C216    C    0.22740   0.48696   0.22195   1.000
    C217    C    0.02481   0.61846   0.01834   1.000
    C218    C    0.78437   0.23758   0.97295   1.000
    C219    C    0.16722   0.95740   0.31947   1.000
    C220    C    0.91620   0.14755   0.82761   1.000
    C221    C    0.61731   0.32238   0.23757   1.000
    C222    C    0.07753   0.10126   0.53908   1.000
    C223    C    0.29255   0.44471   0.24658   1.000
    C224    C    0.03162   0.58300   0.08419   1.000
    C225    C    0.29321   0.94409   0.24994   1.000
    C226    C    0.22762   0.98640   0.27398   1.000
    C227    C    0.14812   0.01455   0.46244   1.000
    C228    C    0.14590   0.51300   0.03505   1.000
    C229    C    0.51317   0.00000   0.16592   1.000
    C230    C    0.88162   0.09583   0.87274   1.000
    C231    C    0.07854   0.60231   0.96021   1.000
    C232    C    0.23543   0.34402   0.18225   1.000
    C233    C    0.23869   0.84509   0.31756   1.000
    C234    C    0.47964   0.06592   0.20844   1.000
    C235    C    0.68565   0.31783   0.19268   1.000
    C236    C    0.16906   0.38557   0.15796   1.000
    C237    C    0.91883   0.02904   0.87590   1.000
    C238    C    0.17202   0.88669   0.34141   1.000
    C239    C    0.02990   0.08051   0.41523   1.000
    C240    C    0.13824   0.54889   0.96947   1.000
    C241    C    0.58388   0.02654   0.12490   1.000
    C242    C    0.87720   0.32299   0.76289   1.000
    C243    C    0.13969   0.05005   0.52856   1.000
    C244    C    0.02108   0.06872   0.79137   1.000
    C245    C    0.98931   0.01438   0.83436   1.000
    C246    C    0.02233   0.11561   0.48158   1.000
    C247    C    0.37090   0.82872   0.24330   1.000
    C248    C    0.11656   0.78138   0.18550   1.000
    C249    C    0.92518   0.35957   0.11051   1.000
    C250    C    0.28734   0.76336   0.97221   1.000
    C251    C    0.25482   0.76975   0.89423   1.000
    C252    C    0.38581   0.78257   0.81300   1.000
    C253    C    0.19076   0.68212   0.19199   1.000
    C254    C    0.24773   0.77003   0.10505   1.000
    C255    C    0.41682   0.85421   0.82707   1.000
    C256    C    0.63183   0.67135   0.74388   1.000
    C257    C    0.70234   0.62705   0.77296   1.000
    C258    C    0.70027   0.12679   0.72856   1.000
    C259    C    0.90671   0.96967   0.59452   1.000
    C260    C    0.92734   0.86083   0.38979   1.000
    C261    C    0.83429   0.54296   0.82192   1.000
    C262    C    0.90706   0.46933   0.90734   1.000
    C263    C    0.38044   0.90604   0.87166   1.000
    C264    C    0.77260   0.51303   0.77806   1.000
    C265    C    0.97515   0.38152   0.98167   1.000
    C266    C    0.21557   0.76236   0.02704   1.000
    C267    C    0.83304   0.04266   0.68060   1.000
    C268    C    0.08378   0.85245   0.17243   1.000
    C269    C    0.38267   0.67755   0.76239   1.000
    C270    C    0.92258   0.89873   0.46100   1.000
    C271    C    0.70744   0.55527   0.75343   1.000
    C272    C    0.96836   0.41699   0.91582   1.000
    C273    C    0.70704   0.05588   0.75016   1.000
    C274    C    0.77269   0.01362   0.72612   1.000
    C275    C    0.85200   0.98540   0.53769   1.000
    C276    C    0.85409   0.48701   0.96495   1.000
    C277    C    0.48680   0.98841   0.83419   1.000
    C278    C    0.11836   0.90417   0.12731   1.000
    C279    C    0.92142   0.39769   0.03980   1.000
    C280    C    0.76455   0.65597   0.81776   1.000
    C281    C    0.76140   0.15489   0.68246   1.000
    C282    C    0.52033   0.93400   0.79163   1.000
    C283    C    0.31433   0.68208   0.80728   1.000
    C284    C    0.83093   0.61442   0.84205   1.000
    C285    C    0.08118   0.97097   0.12409   1.000
    C286    C    0.82812   0.11335   0.65862   1.000
    C287    C    0.97042   0.91961   0.58477   1.000
    C288    C    0.86173   0.45112   0.03053   1.000
    C289    C    0.41607   0.97334   0.87509   1.000
    C290    C    0.12273   0.67698   0.23709   1.000
    C291    C    0.86038   0.94990   0.47156   1.000
    C292    C    0.97894   0.93130   0.20872   1.000
    C293    C    0.01072   0.98563   0.16574   1.000
    C294    C    0.97793   0.88450   0.51842   1.000
    C295    C    0.62916   0.17121   0.75671   1.000
    C296    C    0.38380   0.28293   0.68506   1.000
    C297    C    0.57276   0.86093   0.61000   1.000
    C298    C    0.21318   0.26273   0.47166   1.000
    C299    C    0.24578   0.26828   0.39370   1.000
    C300    C    0.11472   0.28071   0.31319   1.000
    C301    C    0.31052   0.18346   0.69203   1.000
    C302    C    0.25276   0.27065   0.60448   1.000
    C303    C    0.08352   0.35245   0.32594   1.000
    C304    C    0.86854   0.16873   0.24351   1.000
    C305    C    0.79774   0.12486   0.27211   1.000
    C306    C    0.79998   0.62498   0.23056   1.000
    C307    C    0.59418   0.46802   0.09639   1.000
    C308    C    0.57225   0.36233   0.89010   1.000
    C309    C    0.66534   0.04168   0.32042   1.000
    C310    C    0.59221   0.96901   0.40602   1.000
    C311    C    0.12018   0.40458   0.36984   1.000
    C312    C    0.72654   0.01152   0.27614   1.000
    C313    C    0.52335   0.88245   0.48096   1.000
    C314    C    0.28495   0.26227   0.52658   1.000
    C315    C    0.66818   0.53997   0.18308   1.000
    C316    C    0.41607   0.35398   0.67160   1.000
    C317    C    0.11812   0.17530   0.26200   1.000
    C318    C    0.57722   0.39930   0.96179   1.000
    C319    C    0.79199   0.05334   0.25180   1.000
    C320    C    0.53048   0.91732   0.41483   1.000
    C321    C    0.79361   0.55439   0.25317   1.000
    C322    C    0.72848   0.51166   0.22930   1.000
    C323    C    0.64816   0.48471   0.03944   1.000
    C324    C    0.64538   0.98652   0.46354   1.000
    C325    C    0.01311   0.48673   0.33248   1.000
    C326    C    0.38139   0.40527   0.62585   1.000
    C327    C    0.57718   0.89853   0.53900   1.000
    C328    C    0.73592   0.15403   0.31721   1.000
    C329    C    0.73881   0.65240   0.18385   1.000
    C330    C    0.97934   0.43203   0.29056   1.000
    C331    C    0.18650   0.18010   0.30736   1.000
    C332    C    0.66931   0.11292   0.34122   1.000
    C333    C    0.41809   0.47213   0.62228   1.000
    C334    C    0.67251   0.61045   0.16030   1.000
    C335    C    0.53043   0.41830   0.08614   1.000
    C336    C    0.63746   0.95118   0.52942   1.000
    C337    C    0.08433   0.47193   0.37300   1.000
    C338    C    0.37858   0.17880   0.73720   1.000
    C339    C    0.63924   0.45032   0.97279   1.000
    C340    C    0.52015   0.43334   0.70777   1.000
    C341    C    0.48821   0.48727   0.66418   1.000
    C342    C    0.52238   0.38427   0.01925   1.000
    C343    C    0.87077   0.66986   0.25803   1.000
    C344    C    0.81597   0.75350   0.66090   1.000
    C345    C    0.68581   0.75089   0.34070   1.000
    C346    C    0.98727   0.63310   0.71225   1.000
    C347    C    0.51410   0.63120   0.28890   1.000
    C348    C    0.57707   0.75948   0.26724   1.000
    C349    C    0.92528   0.76231   0.73370   1.000
    C350    C    0.68335   0.25166   0.16044   1.000
    C351    C    0.81342   0.25211   0.84033   1.000
    C352    C    0.51278   0.13101   0.21146   1.000
    C353    C    0.98638   0.13332   0.78847   1.000
    C354    C    0.92213   0.26147   0.76706   1.000
    C355    C    0.57409   0.26011   0.23335   1.000
    C356    C    0.31662   0.74824   0.83954   1.000
    C357    C    0.18652   0.74786   0.15966   1.000
    C358    C    0.48718   0.86891   0.78858   1.000
    C359    C    0.01361   0.86668   0.21159   1.000
    C360    C    0.07781   0.73851   0.23293   1.000
    C361    C    0.42587   0.73983   0.76663   1.000
    C362    C    0.18403   0.24648   0.33911   1.000
    C363    C    0.31415   0.24904   0.65933   1.000
    C364    C    0.01273   0.36688   0.28777   1.000
    C365    C    0.48594   0.36869   0.71000   1.000
    C366    C    0.42289   0.24045   0.73281   1.000
    C367    C    0.07473   0.23768   0.26624   1.000
    C368    C    0.48594   0.18563   0.38131   1.000
    C369    C    0.40345   0.00001   0.66188   1.000
    C370    C    0.37469   0.12624   0.34053   1.000
    C371    C    0.07973   0.85789   0.79994   1.000
    C372    C    0.39986   0.50267   0.83468   1.000
    C373    C    0.12934   0.76573   0.73448   1.000
    C374    C    0.48606   0.68471   0.11878   1.000
    C375    C    0.37594   0.62381   0.15946   1.000
    C376    C    0.07709   0.35518   0.69800   1.000
    C377    C    0.12715   0.26537   0.76545   1.000
    C378    C    0.00000   0.68820   0.88129   1.000
    C379    C    0.09702   0.49913   0.16025   1.000
    C380    C    0.12691   0.62673   0.83999   1.000
    C381    C    0.41989   0.35504   0.29964   1.000
    C382    C    0.09846   0.99949   0.33732   1.000
    C383    C    0.36999   0.26298   0.23447   1.000
    C384    C    0.00000   0.18567   0.61898   1.000
    C385    C    0.12530   0.12657   0.65962   1.000
    C386    C    0.42320   0.85477   0.20040   1.000
    C387    C    0.37263   0.76331   0.26511   1.000
    C388    C    0.98298   0.31181   0.11873   1.000
    C389    C    0.90298   0.50087   0.83976   1.000
    C390    C    0.87302   0.37326   0.16000   1.000
    C391    C    0.58009   0.64495   0.70036   1.000
    C392    C    0.90185   0.00000   0.66273   1.000
    C393    C    0.62998   0.73700   0.76555   1.000
    C394    C    0.98650   0.81432   0.38104   1.000
    C395    C    0.87472   0.87343   0.34047   1.000
    C396    C    0.57687   0.14516   0.79962   1.000
    C397    C    0.62740   0.23661   0.73488   1.000
    C398    C    0.51406   0.81437   0.61871   1.000
    C399    C    0.59656   0.99999   0.33816   1.000
    C400    C    0.62531   0.87376   0.65950   1.000
    C401    C    0.92026   0.14211   0.20007   1.000
    C402    C    0.60016   0.49725   0.16532   1.000
    C403    C    0.87066   0.23427   0.26553   1.000
    C404    C    0.51393   0.31524   0.88121   1.000
    C405    C    0.62402   0.37616   0.84053   1.000
    C406    C    0.92291   0.64483   0.30194   1.000
    C407    C    0.87273   0.73466   0.23450   1.000
    O408    O    0.49805   0.36459   0.01511   1.000
    O409    O    0.00140   0.63910   0.01486   1.000
    O410    O    0.19275   0.78335   0.02090   1.000
    O411    O    0.69079   0.21484   0.02150   1.000
    O412    O    0.02821   0.60073   0.05126   1.000
    O413    O    0.05167   0.61039   0.98928   1.000
    O414    O    0.52640   0.40128   0.05269   1.000
    O415    O    0.54980   0.39178   0.99052   1.000
    O416    O    0.19875   0.73710   0.02447   1.000
    O417    O    0.69461   0.26127   0.02538   1.000
    O418    O    0.23165   0.76620   0.06604   1.000
    O419    O    0.25145   0.76286   0.99962   1.000
    O420    O    0.39177   0.57512   0.03271   1.000
    O421    O    0.33995   0.54357   0.04967   1.000
    O422    O    0.35631   0.53241   0.99385   1.000
    O423    O    0.72887   0.23334   0.06676   1.000
    O424    O    0.74849   0.23706   0.00036   1.000
    O425    O    0.89158   0.42440   0.03516   1.000
    O426    O    0.84146   0.45754   0.05331   1.000
    O427    O    0.85791   0.46906   0.99774   1.000
    O428    O    0.16913   0.49225   0.03838   1.000
    O429    O    0.11941   0.52183   0.06385   1.000
    O430    O    0.14207   0.53094   0.00226   1.000
    O431    O    0.42526   0.61913   0.07361   1.000
    O432    O    0.45020   0.60815   0.00948   1.000
    O433    O    0.67239   0.50443   0.04322   1.000
    O434    O    0.62117   0.47636   0.06792   1.000
    O435    O    0.64370   0.46752   0.00611   1.000
    O436    O    0.92330   0.37863   0.07515   1.000
    O437    O    0.94829   0.38960   0.01074   1.000
    O438    O    0.06227   0.55683   0.08843   1.000
    O439    O    0.01124   0.58927   0.10701   1.000
    O440    O    0.56230   0.44316   0.09126   1.000
    O441    O    0.50962   0.41240   0.10869   1.000
    O442    O    0.09465   0.99136   0.10680   1.000
    O443    O    0.59808   0.00611   0.10789   1.000
    O444    O    0.09497   0.51490   0.12645   1.000
    O445    O    0.14623   0.89868   0.11159   1.000
    O446    O    0.59717   0.48263   0.13085   1.000
    O447    O    0.64750   0.09950   0.11269   1.000
    O448    O    0.27483   0.75283   0.10928   1.000
    O449    O    0.25806   0.79710   0.11132   1.000
    O450    O    0.21713   0.75895   0.13236   1.000
    O451    O    0.77166   0.24790   0.11000   1.000
    O452    O    0.75631   0.20332   0.11198   1.000
    O453    O    0.71424   0.24089   0.13309   1.000
    O454    O    0.45690   0.66117   0.11389   1.000
    O455    O    0.40184   0.63072   0.13423   1.000
    O456    O    0.95408   0.33569   0.11462   1.000
    O457    O    0.89910   0.36642   0.13526   1.000
    O458    O    0.97575   0.29631   0.17028   1.000
    O459    O    0.47875   0.70051   0.17037   1.000
    O460    O    0.09977   0.93757   0.12570   1.000
    O461    O    0.04595   0.97830   0.14491   1.000
    O462    O    0.60169   0.06020   0.12663   1.000
    O463    O    0.54852   0.01327   0.14541   1.000
    O464    O    0.14396   0.37413   0.14177   1.000
    O465    O    0.64786   0.62137   0.14329   1.000
    O466    O    0.10107   0.87831   0.14987   1.000
    O467    O    0.60131   0.11978   0.15066   1.000
    O468    O    0.16738   0.42131   0.16802   1.000
    O469    O    0.20224   0.36480   0.17010   1.000
    O470    O    0.15154   0.76462   0.17258   1.000
    O471    O    0.18864   0.71499   0.17582   1.000
    O472    O    0.13136   0.47808   0.16917   1.000
    O473    O    0.67034   0.57521   0.17169   1.000
    O474    O    0.70566   0.63142   0.17208   1.000
    O475    O    0.64874   0.23450   0.17326   1.000
    O476    O    0.68450   0.28474   0.17656   1.000
    O477    O    0.63417   0.51861   0.17420   1.000
    O478    O    0.99591   0.01172   0.16613   1.000
    O479    O    0.99483   0.95847   0.18723   1.000
    O480    O    0.49894   0.97949   0.16625   1.000
    O481    O    0.49641   0.03296   0.18718   1.000
    O482    O    0.74101   0.68002   0.17557   1.000
    O483    O    0.23719   0.31602   0.17503   1.000
    O484    O    0.10017   0.81691   0.17897   1.000
    O485    O    0.04870   0.85956   0.19201   1.000
    O486    O    0.59864   0.18152   0.17952   1.000
    O487    O    0.54796   0.13836   0.19220   1.000
    O488    O    0.19655   0.47200   0.20002   1.000
    O489    O    0.21687   0.66467   0.18614   1.000
    O490    O    0.71121   0.33567   0.18681   1.000
    O491    O    0.26653   0.35848   0.20465   1.000
    O492    O    0.69833   0.52582   0.20619   1.000
    O493    O    0.76939   0.63869   0.20721   1.000
    O494    O    0.09718   0.75994   0.20921   1.000
    O495    O    0.59412   0.23872   0.20972   1.000
    O496    O    0.15675   0.67955   0.21454   1.000
    O497    O    0.65148   0.32010   0.21512   1.000
    O498    O    0.89440   0.15542   0.22179   1.000
    O499    O    0.39705   0.84175   0.22185   1.000
    O500    O    0.49621   0.09847   0.20995   1.000
    O501    O    0.45245   0.06215   0.22568   1.000
    O502    O    0.99628   0.89899   0.21016   1.000
    O503    O    0.95186   0.93488   0.22620   1.000
    O504    O    0.49063   0.17371   0.24477   1.000
    O505    O    0.99262   0.82385   0.24493   1.000
    O506    O    0.31669   0.95465   0.23167   1.000
    O507    O    0.81574   0.04235   0.23395   1.000
    O508    O    0.91959   0.25753   0.24369   1.000
    O509    O    0.02163   0.25924   0.24404   1.000
    O510    O    0.99063   0.32384   0.25481   1.000
    O511    O    0.22534   0.51477   0.22963   1.000
    O512    O    0.25997   0.46583   0.23427   1.000
    O513    O    0.42204   0.73981   0.24353   1.000
    O514    O    0.52426   0.73790   0.24459   1.000
    O515    O    0.49277   0.67376   0.25543   1.000
    O516    O    0.29509   0.40882   0.23681   1.000
    O517    O    0.33289   0.35078   0.24159   1.000
    O518    O    0.61097   0.84279   0.24576   1.000
    O519    O    0.10733   0.15340   0.24560   1.000
    O520    O    0.72596   0.48426   0.23808   1.000
    O521    O    0.76105   0.53302   0.24124   1.000
    O522    O    0.79679   0.58968   0.24187   1.000
    O523    O    0.83537   0.64742   0.24430   1.000
    O524    O    0.10027   0.70774   0.23501   1.000
    O525    O    0.02472   0.75976   0.25560   1.000
    O526    O    0.59570   0.29124   0.23546   1.000
    O527    O    0.52128   0.23826   0.25572   1.000
    O528    O    0.36907   0.29581   0.24530   1.000
    O529    O    0.41923   0.23969   0.25627   1.000
    O530    O    0.87175   0.70226   0.24626   1.000
    O531    O    0.92218   0.75783   0.25638   1.000
    O532    O    0.11260   0.65522   0.25399   1.000
    O533    O    0.60647   0.34419   0.25436   1.000
    O534    O    0.37176   0.79601   0.25421   1.000
    O535    O    0.33538   0.85094   0.25739   1.000
    O536    O    0.86960   0.20150   0.25452   1.000
    O537    O    0.83314   0.14680   0.25781   1.000
    O538    O    0.31646   0.45562   0.26431   1.000
    O539    O    0.29653   0.90862   0.26071   1.000
    O540    O    0.26042   0.96525   0.26196   1.000
    O541    O    0.79486   0.08910   0.26195   1.000
    O542    O    0.75927   0.03243   0.26397   1.000
    O543    O    0.81704   0.54408   0.27172   1.000
    O544    O    0.39402   0.34184   0.27788   1.000
    O545    O    0.95194   0.43570   0.27348   1.000
    O546    O    0.45298   0.56275   0.27458   1.000
    O547    O    0.22495   0.01388   0.26548   1.000
    O548    O    0.89684   0.65734   0.27998   1.000
    O549    O    0.72418   0.98380   0.26820   1.000
    O550    O    0.09643   0.20649   0.26412   1.000
    O551    O    0.15231   0.17770   0.28468   1.000
    O552    O    0.59921   0.79032   0.26502   1.000
    O553    O    0.65538   0.81882   0.28542   1.000
    O554    O    0.09473   0.25920   0.28972   1.000
    O555    O    0.59662   0.73824   0.29111   1.000
    O556    O    0.26927   0.85912   0.29452   1.000
    O557    O    0.76683   0.13945   0.29466   1.000
    O558    O    0.19742   0.97190   0.29672   1.000
    O559    O    0.69594   0.02660   0.29828   1.000
    O560    O    0.47720   0.20102   0.32969   1.000
    O561    O    0.97907   0.79767   0.32965   1.000
    O562    O    0.99603   0.39946   0.28917   1.000
    O563    O    0.04812   0.35967   0.30686   1.000
    O564    O    0.49701   0.59887   0.29054   1.000
    O565    O    0.54901   0.63857   0.30866   1.000
    O566    O    0.99622   0.45938   0.31152   1.000
    O567    O    0.49587   0.53958   0.31401   1.000
    O568    O    0.21216   0.16230   0.31336   1.000
    O569    O    0.18527   0.21329   0.32323   1.000
    O570    O    0.71534   0.83405   0.31382   1.000
    O571    O    0.68761   0.78369   0.32437   1.000
    O572    O    0.09912   0.31658   0.31956   1.000
    O573    O    0.14938   0.26360   0.32615   1.000
    O574    O    0.60005   0.68147   0.32170   1.000
    O575    O    0.65099   0.73394   0.32784   1.000
    O576    O    0.73795   0.18196   0.32465   1.000
    O577    O    0.70261   0.13347   0.32922   1.000
    O578    O    0.24100   0.81736   0.32546   1.000
    O579    O    0.20535   0.86589   0.32948   1.000
    O580    O    0.13284   0.97844   0.32839   1.000
    O581    O    0.16962   0.92204   0.33044   1.000
    O582    O    0.63095   0.02084   0.32929   1.000
    O583    O    0.66733   0.07730   0.33082   1.000
    O584    O    0.10185   0.37852   0.34789   1.000
    O585    O    0.60125   0.62030   0.35132   1.000
    O586    O    0.99877   0.51300   0.33214   1.000
    O587    O    0.04872   0.47933   0.35274   1.000
    O588    O    0.49721   0.48652   0.33557   1.000
    O589    O    0.54685   0.52022   0.35676   1.000
    O590    O    0.09600   0.01494   0.37141   1.000
    O591    O    0.59438   0.98450   0.37209   1.000
    O592    O    0.21490   0.25738   0.36641   1.000
    O593    O    0.90103   0.86713   0.36513   1.000
    O594    O    0.40097   0.13265   0.36528   1.000
    O595    O    0.71651   0.74009   0.36812   1.000
    O596    O    0.64435   0.12445   0.35754   1.000
    O597    O    0.14734   0.87555   0.35815   1.000
    O598    O    0.51006   0.91106   0.39203   1.000
    O599    O    0.10226   0.43826   0.37142   1.000
    O600    O    0.14839   0.39904   0.38505   1.000
    O601    O    0.00892   0.08611   0.39268   1.000
    O602    O    0.09862   0.49248   0.38980   1.000
    O603    O    0.60023   0.56124   0.37596   1.000
    O604    O    0.64628   0.60035   0.39006   1.000
    O605    O    0.59541   0.50759   0.39528   1.000
    O606    O    0.25700   0.29498   0.38724   1.000
    O607    O    0.95692   0.83758   0.38541   1.000
    O608    O    0.45659   0.16234   0.38567   1.000
    O609    O    0.75768   0.70216   0.38955   1.000
    O610    O    0.27229   0.25035   0.38966   1.000
    O611    O    0.77418   0.74648   0.39114   1.000
    O612    O    0.92496   0.87978   0.42540   1.000
    O613    O    0.42504   0.12026   0.42549   1.000
    O614    O    0.22948   0.26550   0.43268   1.000
    O615    O    0.73112   0.73348   0.43450   1.000
    O616    O    0.06172   0.05545   0.41036   1.000
    O617    O    0.12083   0.02247   0.43397   1.000
    O618    O    0.56134   0.94316   0.41042   1.000
    O619    O    0.61879   0.97776   0.43478   1.000
    O620    O    0.52691   0.89989   0.44789   1.000
    O621    O    0.02611   0.09806   0.44840   1.000
    O622    O    0.34221   0.04238   0.44784   1.000
    O623    O    0.83936   0.95560   0.44911   1.000
    O624    O    0.17231   0.99468   0.45862   1.000
    O625    O    0.66878   0.00701   0.46009   1.000
    O626    O    0.39271   0.07513   0.46577   1.000
    O627    O    0.44975   0.10951   0.49001   1.000
    O628    O    0.89148   0.92431   0.46628   1.000
    O629    O    0.95025   0.89161   0.48971   1.000
    O630    O    0.14391   0.03230   0.49550   1.000
    O631    O    0.64142   0.96885   0.49648   1.000
    O632    O    0.35862   0.03112   0.50354   1.000
    O633    O    0.85619   0.96765   0.50462   1.000
    O634    O    0.19530   0.23803   0.47432   1.000
    O635    O    0.19128   0.28450   0.47765   1.000
    O636    O    0.24906   0.26250   0.49912   1.000
    O637    O    0.69809   0.76298   0.47575   1.000
    O638    O    0.69233   0.71676   0.47978   1.000
    O639    O    0.75093   0.73746   0.50091   1.000
    O640    O    0.49975   0.86209   0.48458   1.000
    O641    O    0.55026   0.89049   0.50998   1.000
    O642    O    0.99799   0.13540   0.48552   1.000
    O643    O    0.04993   0.10844   0.51033   1.000
    O644    O    0.00229   0.86473   0.51447   1.000
    O645    O    0.50025   0.13792   0.51545   1.000
    O646    O    0.30765   0.28320   0.52027   1.000
    O647    O    0.80871   0.71546   0.52236   1.000
    O648    O    0.97417   0.90206   0.55159   1.000
    O649    O    0.47309   0.10012   0.55214   1.000
    O650    O    0.30190   0.23698   0.52428   1.000
    O651    O    0.80469   0.76193   0.52569   1.000
    O652    O    0.26886   0.26646   0.56553   1.000
    O653    O    0.77052   0.73446   0.56733   1.000
    O654    O    0.10861   0.07566   0.53382   1.000
    O655    O    0.16066   0.04431   0.55104   1.000
    O656    O    0.60732   0.92485   0.53421   1.000
    O657    O    0.65783   0.95759   0.55217   1.000
    O658    O    0.33126   0.99296   0.53989   1.000
    O659    O    0.38124   0.02222   0.56525   1.000
    O660    O    0.82778   0.99270   0.54149   1.000
    O661    O    0.87936   0.97754   0.56610   1.000
    O662    O    0.57497   0.87973   0.57450   1.000
    O663    O    0.07512   0.12022   0.57467   1.000
    O664    O    0.93856   0.94464   0.58964   1.000
    O665    O    0.98521   0.91406   0.60728   1.000
    O666    O    0.43867   0.05684   0.58962   1.000
    O667    O    0.48994   0.08896   0.60801   1.000
    O668    O    0.40455   0.49235   0.60477   1.000
    O669    O    0.90140   0.50750   0.61020   1.000
    O670    O    0.40563   0.01550   0.62795   1.000
    O671    O    0.35365   0.39960   0.61002   1.000
    O672    O    0.90428   0.98483   0.62862   1.000
    O673    O    0.85162   0.60094   0.61495   1.000
    O674    O    0.22579   0.25345   0.60887   1.000
    O675    O    0.24228   0.29777   0.61048   1.000
    O676    O    0.28345   0.25985   0.63191   1.000
    O677    O    0.72770   0.74961   0.61034   1.000
    O678    O    0.74300   0.70499   0.61277   1.000
    O679    O    0.78510   0.74259   0.63360   1.000
    O680    O    0.54341   0.83765   0.61435   1.000
    O681    O    0.59903   0.86735   0.63475   1.000
    O682    O    0.03635   0.16242   0.61462   1.000
    O683    O    0.09901   0.13287   0.63494   1.000
    O684    O    0.52278   0.79897   0.67032   1.000
    O685    O    0.01416   0.20232   0.67036   1.000
    O686    O    0.39974   0.43870   0.62406   1.000
    O687    O    0.45315   0.47970   0.64323   1.000
    O688    O    0.85277   0.12451   0.64187   1.000
    O689    O    0.39873   0.37962   0.64872   1.000
    O690    O    0.35565   0.87556   0.64249   1.000
    O691    O    0.89775   0.56172   0.62859   1.000
    O692    O    0.95129   0.52065   0.64727   1.000
    O693    O    0.89815   0.62146   0.65212   1.000
    O694    O    0.83058   0.07800   0.66961   1.000
    O695    O    0.79476   0.13412   0.67054   1.000
    O696    O    0.33268   0.92271   0.66921   1.000
    O697    O    0.29738   0.86653   0.67080   1.000
    O698    O    0.34898   0.26599   0.67219   1.000
    O699    O    0.31233   0.21625   0.67568   1.000
    O700    O    0.85062   0.73638   0.67386   1.000
    O701    O    0.81474   0.78669   0.67677   1.000
    O702    O    0.36905   0.97917   0.67075   1.000
    O703    O    0.86744   0.02133   0.67167   1.000
    O704    O    0.50283   0.51338   0.66409   1.000
    O705    O    0.50418   0.46031   0.68598   1.000
    O706    O    0.75905   0.18261   0.67454   1.000
    O707    O    0.99345   0.48699   0.66787   1.000
    O708    O    0.00378   0.54060   0.68849   1.000
    O709    O    0.26205   0.81805   0.67535   1.000
    O710    O    0.39994   0.31845   0.67833   1.000
    O711    O    0.45100   0.36133   0.69080   1.000
    O712    O    0.90088   0.68340   0.68044   1.000
    O713    O    0.95187   0.64032   0.69316   1.000
    O714    O    0.30406   0.97340   0.70176   1.000
    O715    O    0.28458   0.16591   0.68624   1.000
    O716    O    0.80286   0.02814   0.70336   1.000
    O717    O    0.78785   0.83769   0.68663   1.000
    O718    O    0.73084   0.14084   0.70551   1.000
    O719    O    0.23317   0.86056   0.70535   1.000
    O720    O    0.40335   0.26169   0.70893   1.000
    O721    O    0.90528   0.74079   0.71026   1.000
    O722    O    0.34455   0.18113   0.71462   1.000
    O723    O    0.84770   0.82229   0.71506   1.000
    O724    O    0.10313   0.34266   0.71998   1.000
    O725    O    0.60596   0.65815   0.72212   1.000
    O726    O    0.50304   0.40101   0.70888   1.000
    O727    O    0.54710   0.43711   0.72537   1.000
    O728    O    0.00396   0.60053   0.71085   1.000
    O729    O    0.04805   0.56429   0.72653   1.000
    O730    O    0.18295   0.45592   0.72830   1.000
    O731    O    0.50725   0.32616   0.74402   1.000
    O732    O    0.00937   0.67615   0.74521   1.000
    O733    O    0.68352   0.54436   0.73570   1.000
    O734    O    0.07774   0.24218   0.74360   1.000
    O735    O    0.97523   0.24022   0.74440   1.000
    O736    O    0.00735   0.17615   0.75511   1.000
    O737    O    0.58074   0.76029   0.74374   1.000
    O738    O    0.47869   0.76170   0.74428   1.000
    O739    O    0.50934   0.82624   0.75526   1.000
    O740    O    0.27583   0.01620   0.73185   1.000
    O741    O    0.24074   0.96757   0.73600   1.000
    O742    O    0.77541   0.98616   0.73464   1.000
    O743    O    0.73986   0.03475   0.73814   1.000
    O744    O    0.20514   0.91090   0.73800   1.000
    O745    O    0.16686   0.85320   0.74220   1.000
    O746    O    0.70365   0.09134   0.73936   1.000
    O747    O    0.66472   0.14900   0.74264   1.000
    O748    O    0.39352   0.65575   0.74560   1.000
    O749    O    0.88732   0.34474   0.74596   1.000
    O750    O    0.40074   0.20962   0.73500   1.000
    O751    O    0.47573   0.26204   0.75543   1.000
    O752    O    0.90359   0.79350   0.73559   1.000
    O753    O    0.97837   0.74075   0.75594   1.000
    O754    O    0.13040   0.79850   0.74549   1.000
    O755    O    0.08040   0.74247   0.75633   1.000
    O756    O    0.62828   0.20391   0.74579   1.000
    O757    O    0.57799   0.26012   0.75647   1.000
    O758    O    0.38895   0.15716   0.75426   1.000
    O759    O    0.89270   0.84659   0.75409   1.000
    O760    O    0.12816   0.29776   0.75370   1.000
    O761    O    0.16458   0.35258   0.75570   1.000
    O762    O    0.63091   0.70418   0.75471   1.000
    O763    O    0.66709   0.64920   0.75842   1.000
    O764    O    0.20318   0.41030   0.75814   1.000
    O765    O    0.23895   0.46695   0.75877   1.000
    O766    O    0.18426   0.95764   0.76602   1.000
    O767    O    0.68358   0.04530   0.76843   1.000
    O768    O    0.27406   0.51570   0.76190   1.000
    O769    O    0.70489   0.59116   0.76320   1.000
    O770    O    0.74002   0.53415   0.76574   1.000
    O771    O    0.04817   0.06513   0.77389   1.000
    O772    O    0.10560   0.84458   0.77822   1.000
    O773    O    0.60302   0.15818   0.77816   1.000
    O774    O    0.54753   0.93778   0.77439   1.000
    O775    O    0.40427   0.70869   0.76451   1.000
    O776    O    0.34850   0.67981   0.78483   1.000
    O777    O    0.77466   0.48522   0.77037   1.000
    O778    O    0.89967   0.29223   0.76497   1.000
    O779    O    0.84318   0.32041   0.78543   1.000
    O780    O    0.40584   0.76120   0.78981   1.000
    O781    O    0.90276   0.24003   0.79078   1.000
    O782    O    0.23057   0.36128   0.79278   1.000
    O783    O    0.30168   0.47413   0.79381   1.000
    O784    O    0.73345   0.64151   0.79536   1.000
    O785    O    0.52125   0.29944   0.82963   1.000
    O786    O    0.80344   0.52799   0.79999   1.000
    O787    O    0.01573   0.70370   0.82973   1.000
    O788    O    0.00373   0.10102   0.78992   1.000
    O789    O    0.95129   0.14043   0.80804   1.000
    O790    O    0.50375   0.90146   0.79010   1.000
    O791    O    0.45200   0.86156   0.80782   1.000
    O792    O    0.00520   0.04155   0.81287   1.000
    O793    O    0.50356   0.96121   0.81291   1.000
    O794    O    0.28877   0.66423   0.81314   1.000
    O795    O    0.31548   0.71516   0.82341   1.000
    O796    O    0.78305   0.33528   0.81382   1.000
    O797    O    0.81129   0.28498   0.82415   1.000
    O798    O    0.40132   0.81839   0.82003   1.000
    O799    O    0.35122   0.76540   0.82627   1.000
    O800    O    0.89980   0.18307   0.82106   1.000
    O801    O    0.84841   0.23535   0.82742   1.000
    O802    O    0.25894   0.31993   0.82440   1.000
    O803    O    0.29431   0.36852   0.82791   1.000
    O804    O    0.36585   0.48132   0.82580   1.000
    O805    O    0.32965   0.42472   0.82830   1.000
    O806    O    0.76279   0.68397   0.82498   1.000
    O807    O    0.79774   0.63519   0.82991   1.000
    O808    O    0.86863   0.52192   0.83084   1.000
    O809    O    0.83261   0.57869   0.83198   1.000
    O810    O    0.39863   0.88012   0.84936   1.000
    O811    O    0.89891   0.12169   0.85018   1.000
    O812    O    0.50103   0.01467   0.83387   1.000
    O813    O    0.00412   0.98830   0.83398   1.000
    O814    O    0.45144   0.98088   0.85464   1.000
    O815    O    0.95407   0.02171   0.85513   1.000
    O816    O    0.40285   0.51729   0.86915   1.000
    O817    O    0.28572   0.75899   0.86689   1.000
    O818    O    0.35213   0.37854   0.85667   1.000
    O819    O    0.90502   0.48510   0.87355   1.000
    O820    O    0.10084   0.63358   0.86474   1.000
    O821    O    0.78281   0.24102   0.86763   1.000
    O822    O    0.59813   0.36924   0.86531   1.000
    O823    O    0.85602   0.62587   0.85823   1.000
    O824    O    0.49039   0.58752   0.89133   1.000
    O825    O    0.98418   0.41071   0.89300   1.000
    O826    O    0.39826   0.93969   0.87338   1.000
    O827    O    0.35243   0.90039   0.88704   1.000
    O828    O    0.90023   0.06243   0.87432   1.000
    O829    O    0.85375   0.10131   0.88845   1.000
    O830    O    0.40187   0.99377   0.89215   1.000
    O831    O    0.90537   0.00865   0.89323   1.000
    O832    O    0.54309   0.33878   0.88565   1.000
    O833    O    0.03738   0.66431   0.88539   1.000
    O834    O    0.24362   0.79655   0.88800   1.000
    O835    O    0.74189   0.20286   0.88865   1.000
    O836    O    0.22830   0.75196   0.88997   1.000
    O837    O    0.72511   0.24713   0.89067   1.000
    O838    O    0.07666   0.62137   0.92485   1.000
    O839    O    0.57473   0.38081   0.92595   1.000
    O840    O    0.27108   0.76655   0.93322   1.000
    O841    O    0.76829   0.23376   0.93394   1.000
    O842    O    0.43771   0.55676   0.90874   1.000
    O843    O    0.37885   0.52356   0.93206   1.000
    O844    O    0.93771   0.44316   0.91158   1.000
    O845    O    0.88057   0.47817   0.93614   1.000
    O846    O    0.47360   0.59865   0.94731   1.000
    O847    O    0.97176   0.39926   0.94875   1.000
    O848    O    0.15851   0.54247   0.94666   1.000
    O849    O    0.66006   0.45636   0.95032   1.000
    O850    O    0.32763   0.49549   0.95655   1.000
    O851    O    0.83086   0.50776   0.96162   1.000
    O852    O    0.10839   0.57560   0.96484   1.000
    O853    O    0.60823   0.42481   0.96729   1.000
    O854    O    0.30532   0.73862   0.97462   1.000
    O855    O    0.30916   0.78505   0.97847   1.000
    O856    O    0.80118   0.26286   0.97553   1.000
    O857    O    0.80720   0.21660   0.97908   1.000
    O858    O    0.50194   0.63535   0.98489   1.000
    O859    O    0.99856   0.36088   0.98515   1.000
loop_
    _geom_bond_atom_site_label_1
    _geom_bond_atom_site_label_2
    _geom_bond_distance
    _geom_bond_site_symmetry_2
    _ccdc_geom_bond_type
    C151   O408      0.54466      .   S
    C342   O408      0.54466      .   S
    C53    O409      0.54481  1_655   S
    C217   O409      0.54481      .   S
    C90    O410      0.55111      .   S
    C266   O410      0.55111      .   S
    C44    O411      0.55112      .   S
    C202   O411      0.55112      .   S
    C217   O412      0.69497      .   S
    C224   O412      0.69497      .   S
    C217   O413      0.70303  1_554   S
    C231   O413      0.70303      .   S
    C342   O414      0.69505      .   S
    C335   O414      0.69505      .   S
    C342   O415      0.70314  1_554   S
    C318   O415      0.70314      .   S
    C91    O416      0.55024      .   S
    C266   O416      0.55024      .   S
    C45    O417      0.55027      .   S
    C202   O417      0.55027      .   S
    C266   O418      0.76503      .   S
    C254   O418      0.76503      .   S
    C266   O419      0.76617  1_554   S
    C250   O419      0.76617      .   S
    C195   O420      0.70047      .   S
    C174   O420      0.70047      .   S
    C195   O421      0.54419      .   S
    C40    O421      0.54419      .   S
    C195   O422      0.69589  1_554   S
    C179   O422      0.69589      .   S
    C202   O423      0.76528      .   S
    C203   O423      0.76528      .   S
    C202   O424      0.76611      .   S
    C218   O424      0.76611  1_556   S
    C288   O425      0.70046      .   S
    C279   O425      0.70046      .   S
    C288   O426      0.54376      .   S
    C109   O426      0.54376      .   S
    C288   O427      0.69533  1_554   S
    C276   O427      0.69533      .   S
    C228   O428      0.54400      .   S
    C62    O428      0.54400      .   S
    C228   O429      0.69882      .   S
    C214   O429      0.69882      .   S
    C228   O430      0.69533      .   S
    C240   O430      0.69533  1_556   S
    C174   O431      0.73772      .   S
    C164   O431      0.73772      .   S
    C174   O432      0.70311      .   S
    C198   O432      0.70311  1_556   S
    C323   O433      0.54317      .   S
    C133   O433      0.54317      .   S
    C323   O434      0.69874      .   S
    C307   O434      0.69874      .   S
    C323   O435      0.69535      .   S
    C339   O435      0.69535  1_556   S
    C279   O436      0.74474      .   S
    C249   O436      0.74474      .   S
    C279   O437      0.70304      .   S
    C265   O437      0.70304  1_556   S
    C224   O438      0.70127      .   S
    C214   O438      0.70127      .   S
    C224   O439      0.54466      .   S
    C58    O439      0.54466  1_655   S
    C335   O440      0.70120      .   S
    C307   O440      0.70120      .   S
    C335   O441      0.54466      .   S
    C144   O441      0.54466      .   S
    C106   O442      0.54527  1_545   S
    C285   O442      0.54527      .   S
    C74    O443      0.54486  1_565   S
    C241   O443      0.54486      .   S
    C214   O444      0.69076      .   S
    C379   O444      0.69076      .   S
    C100   O445      0.54267      .   S
    C278   O445      0.54267      .   S
    C307   O446      0.69126      .   S
    C402   O446      0.69126      .   S
    C51    O447      0.54558      .   S
    C215   O447      0.54558      .   S
    C254   O448      0.54829      .   S
    C85    O448      0.54829      .   S
    C254   O449      0.54890      .   S
    C86    O449      0.54890      .   S
    C254   O450      0.73436      .   S
    C357   O450      0.73436      .   S
    C203   O451      0.54827      .   S
    C46    O451      0.54827      .   S
    C203   O452      0.54889      .   S
    C47    O452      0.54889      .   S
    C203   O453      0.73430      .   S
    C350   O453      0.73430      .   S
    C164   O454      0.65216      .   S
    C374   O454      0.65216      .   S
    C164   O455      0.63743      .   S
    C375   O455      0.63743      .   S
    C249   O456      0.65099      .   S
    C388   O456      0.65099      .   S
    C249   O457      0.63137      .   S
    C390   O457      0.63137      .   S
    C388   O458      0.99997      .   S
    C7     O458      0.99997      .   S
    C374   O459      0.99933      .   S
    C0     O459      0.99933      .   S
    C285   O460      0.69749      .   S
    C278   O460      0.69749      .   S
    C285   O461      0.69688      .   S
    C293   O461      0.69688      .   S
    C241   O462      0.69752      .   S
    C215   O462      0.69752      .   S
    C241   O463      0.72760      .   S
    C229   O463      0.72760      .   S
    C69    O464      0.54529      .   S
    C236   O464      0.54529      .   S
    C143   O465      0.54526      .   S
    C334   O465      0.54526      .   S
    C278   O466      0.69989      .   S
    C268   O466      0.69989      .   S
    C215   O467      0.69984      .   S
    C207   O467      0.69984      .   S
    C236   O468      0.69850      .   S
    C213   O468      0.69850      .   S
    C236   O469      0.69838      .   S
    C232   O469      0.69838      .   S
    C357   O470      0.68641      .   S
    C248   O470      0.68641      .   S
    C357   O471      0.68969      .   S
    C253   O471      0.68969      .   S
    C379   O472      0.69913      .   S
    C213   O472      0.69913      .   S
    C334   O473      0.69878      .   S
    C315   O473      0.69878      .   S
    C334   O474      0.69799      .   S
    C329   O474      0.69799      .   S
    C350   O475      0.68648      .   S
    C204   O475      0.68648      .   S
    C350   O476      0.68974      .   S
    C235   O476      0.68974      .   S
    C402   O477      0.69847      .   S
    C315   O477      0.69847      .   S
    C293   O478      0.54610  1_465   S
    C114   O478      0.54610      .   S
    C293   O479      0.69754  1_455   S
    C292   O479      0.69754      .   S
    C229   O480      0.44992  1_545   S
    C63    O480      0.44992      .   S
    C229   O481      0.78025      .   S
    C234   O481      0.78025      .   S
    C138   O482      0.54466      .   S
    C329   O482      0.54466      .   S
    C65    O483      0.54471      .   S
    C232   O483      0.54471      .   S
    C268   O484      0.73013      .   S
    C248   O484      0.73013      .   S
    C268   O485      0.68184      .   S
    C359   O485      0.68184      .   S
    C207   O486      0.73011      .   S
    C204   O486      0.73011      .   S
    C207   O487      0.68202      .   S
    C352   O487      0.68202      .   S
    C213   O488      0.69789      .   S
    C216   O488      0.69789      .   S
    C84    O489      0.54309      .   S
    C253   O489      0.54309      .   S
    C68    O490      0.54287      .   S
    C235   O490      0.54287      .   S
    C232   O491      0.70212      .   S
    C209   O491      0.70212      .   S
    C315   O492      0.69781      .   S
    C322   O492      0.69781      .   S
    C329   O493      0.70217      .   S
    C306   O493      0.70217      .   S
    C248   O494      0.67297      .   S
    C360   O494      0.67297      .   S
    C204   O495      0.67286      .   S
    C355   O495      0.67286      .   S
    C253   O496      0.68820      .   S
    C290   O496      0.68820      .   S
    C235   O497      0.68820      .   S
    C221   O497      0.68820      .   S
    C401   O498      0.62765      .   S
    C304   O498      0.62765      .   S
    C386   O499      0.62774      .   S
    C247   O499      0.62774      .   S
    C234   O500      0.67016      .   S
    C352   O500      0.67016      .   S
    C234   O501      0.54503      .   S
    C67    O501      0.54503      .   S
    C292   O502      0.67023      .   S
    C359   O502      0.67023  1_455   S
    C292   O503      0.54505      .   S
    C113   O503      0.54505      .   S
    C352   O504      1.06975      .   S
    C3     O504      1.06975      .   S
    C359   O505      1.07171  1_455   S
    C4     O505      1.07171      .   S
    C59    O506      0.54398      .   S
    C225   O506      0.54398      .   S
    C129   O507      0.54358      .   S
    C319   O507      0.54358      .   S
    C7     O508      0.98788      .   S
    C403   O508      0.98788      .   S
    C7     O509      1.02963  1_655   S
    C367   O509      1.02963      .   S
    C7     O510      1.07159      .   S
    C364   O510      1.07159  1_455   S
    C216   O511      0.54352      .   S
    C52    O511      0.54352      .   S
    C216   O512      0.69575      .   S
    C223   O512      0.69575      .   S
    C0     O513      0.99075      .   S
    C387   O513      0.99075      .   S
    C0     O514      1.02892      .   S
    C348   O514      1.02892      .   S
    C0     O515      1.06959      .   S
    C347   O515      1.06959      .   S
    C209   O516      0.70056      .   S
    C223   O516      0.70056      .   S
    C209   O517      0.75305      .   S
    C208   O517      0.75305      .   S
    C39    O518      0.54189      .   S
    C194   O518      0.54189      .   S
    C128   O519      0.53900      .   S
    C317   O519      0.53900      .   S
    C322   O520      0.54379      .   S
    C132   O520      0.54379      .   S
    C322   O521      0.69589      .   S
    C321   O521      0.69589      .   S
    C306   O522      0.70049      .   S
    C321   O522      0.70049      .   S
    C306   O523      0.75249      .   S
    C343   O523      0.75249      .   S
    C360   O524      0.68400      .   S
    C290   O524      0.68400      .   S
    C360   O525      1.02945      .   S
    C4     O525      1.02945  1_655   S
    C355   O526      0.68385      .   S
    C221   O526      0.68385      .   S
    C355   O527      1.03093      .   S
    C3     O527      1.03093      .   S
    C383   O528      0.64954      .   S
    C208   O528      0.64954      .   S
    C383   O529      0.98990      .   S
    C3     O529      0.98990      .   S
    C407   O530      0.64951      .   S
    C343   O530      0.64951      .   S
    C407   O531      0.99184      .   S
    C4     O531      0.99184      .   S
    C290   O532      0.54142      .   S
    C111   O532      0.54142      .   S
    C221   O533      0.54150      .   S
    C56    O533      0.54150      .   S
    C247   O534      0.64969      .   S
    C387   O534      0.64969      .   S
    C247   O535      0.75289      .   S
    C210   O535      0.75289      .   S
    C304   O536      0.64964      .   S
    C403   O536      0.64964      .   S
    C304   O537      0.75248      .   S
    C305   O537      0.75248      .   S
    C223   O538      0.54383      .   S
    C57    O538      0.54383      .   S
    C225   O539      0.70055      .   S
    C210   O539      0.70055      .   S
    C225   O540      0.69588      .   S
    C226   O540      0.69588      .   S
    C319   O541      0.70064      .   S
    C305   O541      0.70064      .   S
    C319   O542      0.69577      .   S
    C312   O542      0.69577      .   S
    C321   O543      0.54399      .   S
    C131   O543      0.54399      .   S
    C208   O544      0.62774      .   S
    C381   O544      0.62774      .   S
    C139   O545      0.54502      .   S
    C330   O545      0.54502      .   S
    C41    O546      0.54501      .   S
    C196   O546      0.54501      .   S
    C60    O547      0.54364      .   S
    C226   O547      0.54364  1_565   S
    C343   O548      0.62804      .   S
    C406   O548      0.62804      .   S
    C124   O549      0.54355      .   S
    C312   O549      0.54355  1_545   S
    C317   O550      0.68420      .   S
    C367   O550      0.68420      .   S
    C317   O551      0.69092      .   S
    C331   O551      0.69092      .   S
    C194   O552      0.68386      .   S
    C348   O552      0.68386      .   S
    C194   O553      0.68822      .   S
    C157   O553      0.68822      .   S
    C367   O554      0.67286      .   S
    C300   O554      0.67286      .   S
    C348   O555      0.67294      .   S
    C152   O555      0.67294      .   S
    C210   O556      0.70208      .   S
    C233   O556      0.70208      .   S
    C305   O557      0.70196      .   S
    C328   O557      0.70196      .   S
    C226   O558      0.69794      .   S
    C219   O558      0.69794      .   S
    C312   O559      0.69776      .   S
    C309   O559      0.69776      .   S
    C3     O560      1.00316      .   S
    C368   O560      1.00316      .   S
    C4     O561      1.00097      .   S
    C394   O561      1.00097      .   S
    C364   O562      0.67041  1_455   S
    C330   O562      0.67041      .   S
    C364   O563      0.68196      .   S
    C303   O563      0.68196      .   S
    C347   O564      0.67021      .   S
    C196   O564      0.67021      .   S
    C347   O565      0.68236      .   S
    C172   O565      0.68236      .   S
    C330   O566      0.69756      .   S
    C325   O566      0.69756  1_455   S
    C196   O567      0.69749      .   S
    C197   O567      0.69749      .   S
    C331   O568      0.54282      .   S
    C140   O568      0.54282      .   S
    C331   O569      0.68967      .   S
    C362   O569      0.68967      .   S
    C157   O570      0.54301      .   S
    C12    O570      0.54301      .   S
    C157   O571      0.68964      .   S
    C345   O571      0.68964      .   S
    C300   O572      0.73003      .   S
    C303   O572      0.73003      .   S
    C300   O573      0.68632      .   S
    C362   O573      0.68632      .   S
    C152   O574      0.73014      .   S
    C172   O574      0.73014      .   S
    C152   O575      0.68637      .   S
    C345   O575      0.68637      .   S
    C328   O576      0.54469      .   S
    C137   O576      0.54469      .   S
    C328   O577      0.69814      .   S
    C332   O577      0.69814      .   S
    C233   O578      0.54468      .   S
    C66    O578      0.54468      .   S
    C233   O579      0.69816      .   S
    C238   O579      0.69816      .   S
    C219   O580      0.69890      .   S
    C382   O580      0.69890      .   S
    C219   O581      0.69864      .   S
    C238   O581      0.69864      .   S
    C309   O582      0.69879      .   S
    C399   O582      0.69879  1_565   S
    C309   O583      0.69841      .   S
    C332   O583      0.69841      .   S
    C303   O584      0.69984      .   S
    C311   O584      0.69984      .   S
    C172   O585      0.69989      .   S
    C182   O585      0.69989      .   S
    C135   O586      0.54609      .   S
    C325   O586      0.54609  1_455   S
    C325   O587      0.69687      .   S
    C337   O587      0.69687      .   S
    C42    O588      0.54598      .   S
    C197   O588      0.54598      .   S
    C197   O589      0.69648      .   S
    C189   O589      0.69648      .   S
    C382   O590      0.69079  1_565   S
    C211   O590      0.69079      .   S
    C399   O591      0.69096      .   S
    C310   O591      0.69096      .   S
    C362   O592      0.73431      .   S
    C299   O592      0.73431      .   S
    C395   O593      0.63127      .   S
    C260   O593      0.63127      .   S
    C370   O594      0.63195      .   S
    C153   O594      0.63195      .   S
    C345   O595      0.73438      .   S
    C158   O595      0.73438      .   S
    C332   O596      0.54526      .   S
    C141   O596      0.54526      .   S
    C238   O597      0.54524      .   S
    C71    O597      0.54524      .   S
    C130   O598      0.54469      .   S
    C320   O598      0.54469      .   S
    C311   O599      0.69741      .   S
    C337   O599      0.69741      .   S
    C311   O600      0.54269      .   S
    C123   O600      0.54269      .   S
    C72    O601      0.54460  1_655   S
    C239   O601      0.54460      .   S
    C337   O602      0.54528      .   S
    C146   O602      0.54528      .   S
    C182   O603      0.69751      .   S
    C189   O603      0.69751      .   S
    C182   O604      0.54258      .   S
    C28    O604      0.54258      .   S
    C189   O605      0.54579      .   S
    C34    O605      0.54579      .   S
    C119   O606      0.54887      .   S
    C299   O606      0.54887      .   S
    C394   O607      0.65091      .   S
    C260   O607      0.65091      .   S
    C368   O608      0.65040      .   S
    C153   O608      0.65040      .   S
    C14    O609      0.54888      .   S
    C158   O609      0.54888      .   S
    C118   O610      0.54829      .   S
    C299   O610      0.54829      .   S
    C13    O611      0.54834      .   S
    C158   O611      0.54834      .   S
    C260   O612      0.74505      .   S
    C270   O612      0.74505      .   S
    C153   O613      0.74439      .   S
    C183   O613      0.74439      .   S
    C299   O614      0.76503      .   S
    C298   O614      0.76503      .   S
    C158   O615      0.76495      .   S
    C170   O615      0.76495      .   S
    C211   O616      0.70120      .   S
    C239   O616      0.70120      .   S
    C211   O617      0.69905      .   S
    C227   O617      0.69905      .   S
    C310   O618      0.70123      .   S
    C320   O618      0.70123      .   S
    C310   O619      0.69885      .   S
    C324   O619      0.69885      .   S
    C320   O620      0.69487      .   S
    C313   O620      0.69487      .   S
    C239   O621      0.69497      .   S
    C246   O621      0.69497      .   S
    C37    O622      0.54419      .   S
    C192   O622      0.54419      .   S
    C112   O623      0.54420      .   S
    C291   O623      0.54420      .   S
    C61    O624      0.54387      .   S
    C227   O624      0.54387  1_545   S
    C134   O625      0.54387      .   S
    C324   O625      0.54387  1_565   S
    C183   O626      0.70049      .   S
    C192   O626      0.70049      .   S
    C183   O627      0.70322      .   S
    C169   O627      0.70322      .   S
    C270   O628      0.70051      .   S
    C291   O628      0.70051      .   S
    C270   O629      0.70319      .   S
    C294   O629      0.70319      .   S
    C227   O630      0.69555      .   S
    C243   O630      0.69555      .   S
    C324   O631      0.69556      .   S
    C336   O631      0.69556      .   S
    C192   O632      0.69561      .   S
    C180   O632      0.69561      .   S
    C291   O633      0.69563      .   S
    C275   O633      0.69563      .   S
    C298   O634      0.55029      .   S
    C117   O634      0.55029      .   S
    C298   O635      0.55111      .   S
    C116   O635      0.55111      .   S
    C298   O636      0.76616      .   S
    C314   O636      0.76616      .   S
    C170   O637      0.55027      .   S
    C19    O637      0.55027      .   S
    C170   O638      0.55114      .   S
    C18    O638      0.55114      .   S
    C170   O639      0.76614      .   S
    C154   O639      0.76614      .   S
    C313   O640      0.54470      .   S
    C125   O640      0.54470      .   S
    C313   O641      0.70270      .   S
    C327   O641      0.70270      .   S
    C246   O642      0.54476  1_455   S
    C79    O642      0.54476      .   S
    C246   O643      0.70322      .   S
    C222   O643      0.70322      .   S
    C115   O644      0.54476      .   S
    C294   O644      0.54476  1_655   S
    C17    O645      0.54470      .   S
    C169   O645      0.54470      .   S
    C126   O646      0.55112      .   S
    C314   O646      0.55112      .   S
    C8     O647      0.55112      .   S
    C154   O647      0.55112      .   S
    C294   O648      0.69501      .   S
    C287   O648      0.69501      .   S
    C169   O649      0.69492      .   S
    C176   O649      0.69492      .   S
    C127   O650      0.55027      .   S
    C314   O650      0.55027      .   S
    C9     O651      0.55029      .   S
    C154   O651      0.55029      .   S
    C314   O652      0.76496      .   S
    C302   O652      0.76496      .   S
    C154   O653      0.76484      .   S
    C155   O653      0.76484      .   S
    C243   O654      0.70053      .   S
    C222   O654      0.70053      .   S
    C243   O655      0.54428      .   S
    C76    O655      0.54428      .   S
    C336   O656      0.70040      .   S
    C327   O656      0.70040      .   S
    C336   O657      0.54420      .   S
    C145   O657      0.54420      .   S
    C180   O658      0.54377  1_545   S
    C26    O658      0.54377      .   S
    C180   O659      0.69887      .   S
    C166   O659      0.69887      .   S
    C275   O660      0.41843      .   S
    C97    O660      0.41843  1_545   S
    C275   O661      0.69875      .   S
    C259   O661      0.69875      .   S
    C327   O662      0.74503      .   S
    C297   O662      0.74503      .   S
    C222   O663      0.74492      .   S
    C212   O663      0.74492      .   S
    C287   O664      0.70116      .   S
    C259   O664      0.70116      .   S
    C287   O665      0.48884      .   S
    C108   O665      0.48884  1_455   S
    C176   O666      0.70124      .   S
    C166   O666      0.70124      .   S
    C176   O667      0.54466      .   S
    C22    O667      0.54466      .   S
    C142   O668      0.54528      .   S
    C333   O668      0.54528      .   S
    C38    O669      0.54530      .   S
    C193   O669      0.54530      .   S
    C166   O670      0.69092      .   S
    C369   O670      0.69092      .   S
    C136   O671      0.54270      .   S
    C326   O671      0.54270      .   S
    C259   O672      0.68879      .   S
    C392   O672      0.68879  1_545   S
    C15    O673      0.54270      .   S
    C167   O673      0.54270      .   S
    C302   O674      0.54833      .   S
    C121   O674      0.54833      .   S
    C302   O675      0.54888      .   S
    C122   O675      0.54888      .   S
    C302   O676      0.73433      .   S
    C363   O676      0.73433      .   S
    C155   O677      0.54831      .   S
    C10    O677      0.54831      .   S
    C155   O678      0.54892      .   S
    C11    O678      0.54892      .   S
    C155   O679      0.73442      .   S
    C344   O679      0.73442      .   S
    C297   O680      0.65041      .   S
    C398   O680      0.65041      .   S
    C297   O681      0.63190      .   S
    C400   O681      0.63190      .   S
    C212   O682      0.73402      .   S
    C384   O682      0.73402      .   S
    C212   O683      0.63126      .   S
    C385   O683      0.63126      .   S
    C398   O684      1.00309      .   S
    C5     O684      1.00309      .   S
    C384   O685      1.01955      .   S
    C2     O685      1.01955      .   S
    C333   O686      0.69755      .   S
    C326   O686      0.69755      .   S
    C333   O687      0.69694      .   S
    C341   O687      0.69694      .   S
    C107   O688      0.54523      .   S
    C286   O688      0.54523      .   S
    C326   O689      0.69988      .   S
    C316   O689      0.69988      .   S
    C33    O690      0.54528      .   S
    C188   O690      0.54528      .   S
    C193   O691      0.69742      .   S
    C167   O691      0.69742      .   S
    C193   O692      0.69684      .   S
    C181   O692      0.69684      .   S
    C167   O693      0.69981      .   S
    C159   O693      0.69981      .   S
    C286   O694      0.69864      .   S
    C267   O694      0.69864      .   S
    C286   O695      0.69817      .   S
    C281   O695      0.69817      .   S
    C188   O696      0.69841      .   S
    C165   O696      0.69841      .   S
    C188   O697      0.69813      .   S
    C184   O697      0.69813      .   S
    C363   O698      0.68644      .   S
    C296   O698      0.68644      .   S
    C363   O699      0.68969      .   S
    C301   O699      0.68969      .   S
    C344   O700      0.68632      .   S
    C156   O700      0.68632      .   S
    C344   O701      0.68966      .   S
    C187   O701      0.68966      .   S
    C369   O702      0.69882  1_545   S
    C165   O702      0.69882      .   S
    C392   O703      0.70222      .   S
    C267   O703      0.70222      .   S
    C150   O704      0.54600      .   S
    C341   O704      0.54600      .   S
    C341   O705      0.69746      .   S
    C340   O705      0.69746      .   S
    C102   O706      0.54467      .   S
    C281   O706      0.54467      .   S
    C181   O707      0.50642      .   S
    C27    O707      0.50642  1_455   S
    C181   O708      0.69753  1_655   S
    C186   O708      0.69753      .   S
    C29    O709      0.54469      .   S
    C184   O709      0.54469      .   S
    C316   O710      0.73015      .   S
    C296   O710      0.73015      .   S
    C316   O711      0.67719      .   S
    C365   O711      0.67719      .   S
    C159   O712      0.73004      .   S
    C156   O712      0.73004      .   S
    C159   O713      0.68198      .   S
    C346   O713      0.68198      .   S
    C165   O714      0.69771      .   S
    C168   O714      0.69771      .   S
    C120   O715      0.54307      .   S
    C301   O715      0.54307      .   S
    C267   O716      0.69792      .   S
    C274   O716      0.69792      .   S
    C32    O717      0.54281      .   S
    C187   O717      0.54281      .   S
    C281   O718      0.70212      .   S
    C258   O718      0.70212      .   S
    C184   O719      0.70195      .   S
    C161   O719      0.70195      .   S
    C296   O720      0.67291      .   S
    C366   O720      0.67291      .   S
    C156   O721      0.67254      .   S
    C349   O721      0.67254      .   S
    C301   O722      0.68788      .   S
    C338   O722      0.68788      .   S
    C187   O723      0.68823      .   S
    C173   O723      0.68823      .   S
    C376   O724      0.62805      .   S
    C199   O724      0.62805      .   S
    C391   O725      0.62774      .   S
    C256   O725      0.62774      .   S
    C340   O726      0.66977      .   S
    C365   O726      0.66977      .   S
    C340   O727      0.54504      .   S
    C149   O727      0.54504      .   S
    C186   O728      0.67042      .   S
    C346   O728      0.67042  1_655   S
    C186   O729      0.54505      .   S
    C31    O729      0.54505      .   S
    C23    O730      0.54394      .   S
    C177   O730      0.54394      .   S
    C365   O731      1.07504      .   S
    C6     O731      1.07504      .   S
    C346   O732      1.07164  1_655   S
    C1     O732      1.07164      .   S
    C93    O733      0.54385      .   S
    C271   O733      0.54385      .   S
    C2     O734      0.99127      .   S
    C377   O734      0.99127      .   S
    C2     O735      1.02934  1_455   S
    C354   O735      1.02934      .   S
    C2     O736      1.07176      .   S
    C353   O736      1.07176  1_655   S
    C5     O737      0.98987      .   S
    C393   O737      0.98987      .   S
    C5     O738      1.03108      .   S
    C361   O738      1.03108      .   S
    C5     O739      1.06956      .   S
    C358   O739      1.06956      .   S
    C168   O740      0.54357  1_565   S
    C16    O740      0.54357      .   S
    C168   O741      0.69540      .   S
    C175   O741      0.69540      .   S
    C274   O742      0.54365  1_545   S
    C96    O742      0.54365      .   S
    C274   O743      0.69596      .   S
    C273   O743      0.69596      .   S
    C161   O744      0.70033      .   S
    C175   O744      0.70033      .   S
    C161   O745      0.75247      .   S
    C160   O745      0.75247      .   S
    C258   O746      0.70058      .   S
    C273   O746      0.70058      .   S
    C258   O747      0.75301      .   S
    C295   O747      0.75301      .   S
    C92    O748      0.54150      .   S
    C269   O748      0.54150      .   S
    C75    O749      0.54156      .   S
    C242   O749      0.54156      .   S
    C366   O750      0.68383      .   S
    C338   O750      0.68383      .   S
    C366   O751      1.02919      .   S
    C6     O751      1.02919      .   S
    C349   O752      0.68399      .   S
    C173   O752      0.68399      .   S
    C349   O753      1.02975      .   S
    C1     O753      1.02975  1_455   S
    C373   O754      0.64963      .   S
    C160   O754      0.64963      .   S
    C373   O755      0.98791      .   S
    C1     O755      0.98791      .   S
    C397   O756      0.64971      .   S
    C295   O756      0.64971      .   S
    C397   O757      0.99092      .   S
    C6     O757      0.99092      .   S
    C338   O758      0.54189      .   S
    C147   O758      0.54189      .   S
    C173   O759      0.54122      .   S
    C20    O759      0.54122      .   S
    C199   O760      0.64923      .   S
    C377   O760      0.64923      .   S
    C199   O761      0.75249      .   S
    C162   O761      0.75249      .   S
    C256   O762      0.64954      .   S
    C393   O762      0.64954      .   S
    C256   O763      0.75306      .   S
    C257   O763      0.75306      .   S
    C177   O764      0.70051      .   S
    C162   O764      0.70051      .   S
    C177   O765      0.69588      .   S
    C178   O765      0.69588      .   S
    C175   O766      0.54431      .   S
    C21    O766      0.54431      .   S
    C273   O767      0.54397      .   S
    C95    O767      0.54397      .   S
    C24    O768      0.54395      .   S
    C178   O768      0.54395      .   S
    C271   O769      0.70055      .   S
    C257   O769      0.70055      .   S
    C271   O770      0.69576      .   S
    C264   O770      0.69576      .   S
    C77    O771      0.54506      .   S
    C244   O771      0.54506      .   S
    C160   O772      0.62767      .   S
    C371   O772      0.62767      .   S
    C295   O773      0.62771      .   S
    C396   O773      0.62771      .   S
    C103   O774      0.54501      .   S
    C282   O774      0.54501      .   S
    C269   O775      0.68385      .   S
    C361   O775      0.68385      .   S
    C269   O776      0.68820      .   S
    C283   O776      0.68820      .   S
    C88    O777      0.54355      .   S
    C264   O777      0.54355      .   S
    C242   O778      0.68398      .   S
    C354   O778      0.68398      .   S
    C242   O779      0.68817      .   S
    C205   O779      0.68817      .   S
    C361   O780      0.66756      .   S
    C252   O780      0.66756      .   S
    C354   O781      0.67303      .   S
    C200   O781      0.67303      .   S
    C162   O782      0.70217      .   S
    C185   O782      0.70217      .   S
    C178   O783      0.69784      .   S
    C171   O783      0.69784      .   S
    C257   O784      0.70211      .   S
    C280   O784      0.70211      .   S
    C6     O785      0.99928      .   S
    C404   O785      0.99928      .   S
    C264   O786      0.69789      .   S
    C261   O786      0.69789      .   S
    C1     O787      1.02510      .   S
    C378   O787      1.02510      .   S
    C353   O788      0.67022  1_655   S
    C244   O788      0.67022      .   S
    C353   O789      0.68183      .   S
    C220   O789      0.68183      .   S
    C358   O790      0.67017      .   S
    C282   O790      0.67017      .   S
    C358   O791      0.68198      .   S
    C255   O791      0.68198      .   S
    C244   O792      0.69753      .   S
    C245   O792      0.69753  1_655   S
    C282   O793      0.69745      .   S
    C277   O793      0.69745      .   S
    C283   O794      0.54286      .   S
    C104   O794      0.54286      .   S
    C283   O795      0.68973      .   S
    C356   O795      0.68973      .   S
    C205   O796      0.54309      .   S
    C48    O796      0.54309      .   S
    C205   O797      0.68971      .   S
    C351   O797      0.68971      .   S
    C252   O798      0.73147      .   S
    C255   O798      0.73147      .   S
    C252   O799      0.68938      .   S
    C356   O799      0.68938      .   S
    C200   O800      0.73013      .   S
    C220   O800      0.73013      .   S
    C200   O801      0.68639      .   S
    C351   O801      0.68639      .   S
    C185   O802      0.54465      .   S
    C30    O802      0.54465      .   S
    C185   O803      0.69800      .   S
    C190   O803      0.69800      .   S
    C171   O804      0.69848      .   S
    C372   O804      0.69848      .   S
    C171   O805      0.69880      .   S
    C190   O805      0.69880      .   S
    C280   O806      0.54471      .   S
    C101   O806      0.54471      .   S
    C280   O807      0.69838      .   S
    C284   O807      0.69838      .   S
    C261   O808      0.69912      .   S
    C389   O808      0.69912      .   S
    C261   O809      0.69849      .   S
    C284   O809      0.69849      .   S
    C255   O810      0.69987      .   S
    C263   O810      0.69987      .   S
    C220   O811      0.69989      .   S
    C230   O811      0.69989      .   S
    C99    O812      0.54600      .   S
    C277   O812      0.54600  1_565   S
    C78    O813      0.54609      .   S
    C245   O813      0.54609  1_645   S
    C277   O814      0.69684      .   S
    C289   O814      0.69684      .   S
    C245   O815      0.69643      .   S
    C237   O815      0.69643      .   S
    C372   O816      0.69134      .   S
    C163   O816      0.69134      .   S
    C356   O817      0.73434      .   S
    C251   O817      0.73434      .   S
    C190   O818      0.54525      .   S
    C35    O818      0.54525      .   S
    C389   O819      0.69069      .   S
    C262   O819      0.69069      .   S
    C380   O820      0.63142      .   S
    C201   O820      0.63142      .   S
    C351   O821      0.73439      .   S
    C206   O821      0.73439      .   S
    C405   O822      0.63144      .   S
    C308   O822      0.63144      .   S
    C284   O823      0.54528      .   S
    C105   O823      0.54528      .   S
    C36    O824      0.54467      .   S
    C191   O824      0.54467      .   S
    C94    O825      0.50407  1_455   S
    C272   O825      0.50407      .   S
    C263   O826      0.69748      .   S
    C289   O826      0.69748      .   S
    C263   O827      0.54271      .   S
    C87    O827      0.54271      .   S
    C230   O828      0.69745      .   S
    C237   O828      0.69745      .   S
    C230   O829      0.54264      .   S
    C64    O829      0.54264      .   S
    C289   O830      0.54529      .   S
    C110   O830      0.54529  1_545   S
    C237   O831      0.54575      .   S
    C70    O831      0.54575  1_565   S
    C404   O832      0.65110      .   S
    C308   O832      0.65110      .   S
    C378   O833      0.75425      .   S
    C201   O833      0.75425      .   S
    C83    O834      0.54890      .   S
    C251   O834      0.54890      .   S
    C50    O835      0.54892      .   S
    C206   O835      0.54892      .   S
    C82    O836      0.54827      .   S
    C251   O836      0.54827      .   S
    C49    O837      0.54838      .   S
    C206   O837      0.54838      .   S
    C201   O838      0.74475      .   S
    C231   O838      0.74475      .   S
    C308   O839      0.74493      .   S
    C318   O839      0.74493      .   S
    C251   O840      0.76524      .   S
    C250   O840      0.76524      .   S
    C206   O841      0.76501      .   S
    C218   O841      0.76501      .   S
    C163   O842      0.70120      .   S
    C191   O842      0.70120      .   S
    C163   O843      0.69825      .   S
    C179   O843      0.69825      .   S
    C262   O844      0.70128      .   S
    C272   O844      0.70128      .   S
    C262   O845      0.69883      .   S
    C276   O845      0.69883      .   S
    C191   O846      0.69503      .   S
    C198   O846      0.69503      .   S
    C272   O847      0.69497      .   S
    C265   O847      0.69497      .   S
    C73    O848      0.54412      .   S
    C240   O848      0.54412      .   S
    C148   O849      0.54420      .   S
    C339   O849      0.54420      .   S
    C25    O850      0.54358      .   S
    C179   O850      0.54358      .   S
    C98    O851      0.54400      .   S
    C276   O851      0.54400      .   S
    C231   O852      0.70046      .   S
    C240   O852      0.70046      .   S
    C318   O853      0.70046      .   S
    C339   O853      0.70046      .   S
    C250   O854      0.55028      .   S
    C81    O854      0.55028      .   S
    C250   O855      0.55112      .   S
    C80    O855      0.55112      .   S
    C218   O856      0.55024      .   S
    C55    O856      0.55024      .   S
    C218   O857      0.55109      .   S
    C54    O857      0.55109      .   S
    C198   O858      0.54468      .   S
    C43    O858      0.54468      .   S
    C265   O859      0.54481      .   S
    C89    O859      0.54481  1_455   S
