# CIF file generated by openbabel 2.4.90, see http://openbabel.sf.net
data_I
_chemical_name_common ''
_cell_length_a 15.541
_cell_length_b 15.536
_cell_length_c 15.533
_cell_angle_alpha 76.13
_cell_angle_beta 76.134
_cell_angle_gamma 76.139
_space_group_name_H-M_alt 'P 1'
_space_group_name_Hall 'P 1'
loop_
    _symmetry_equiv_pos_as_xyz
    x,y,z
loop_
    _atom_site_label
    _atom_site_type_symbol
    _atom_site_fract_x
    _atom_site_fract_y
    _atom_site_fract_z
    _atom_site_occupancy
    H0      H    0.97613   0.20163   0.50774   1.000
    H1      H    0.50781   0.97599   0.20162   1.000
    H2      H    0.20168   0.50753   0.97595   1.000
    H3      H    0.79834   0.02402   0.49240   1.000
    H4      H    0.02387   0.49223   0.79838   1.000
    H5      H    0.49219   0.79836   0.02400   1.000
    H6      H    0.02387   0.79836   0.49228   1.000
    H7      H    0.49219   0.02400   0.79839   1.000
    H8      H    0.79832   0.49246   0.02407   1.000
    H9      H    0.20166   0.97598   0.50753   1.000
    H10     H    0.97613   0.50776   0.20164   1.000
    H11     H    0.50780   0.20163   0.97595   1.000
    H12     H    0.23787   0.23766   0.52227   1.000
    H13     H    0.52260   0.23772   0.23768   1.000
    H14     H    0.23788   0.52231   0.23765   1.000
    H15     H    0.76212   0.76233   0.47774   1.000
    H16     H    0.76212   0.47768   0.76237   1.000
    H17     H    0.47740   0.76227   0.76233   1.000
    C18     C    0.06563   0.32752   0.51477   1.000
    C19     C    0.10293   0.22921   0.51559   1.000
    C20     C    0.04679   0.17321   0.51050   1.000
    C21     C    0.51496   0.06548   0.32752   1.000
    C22     C    0.51581   0.10279   0.22920   1.000
    C23     C    0.51064   0.04666   0.17321   1.000
    C24     C    0.32758   0.51463   0.06539   1.000
    C25     C    0.22930   0.51552   0.10272   1.000
    C26     C    0.17329   0.51039   0.04660   1.000
    C27     C    0.67242   0.93457   0.48538   1.000
    C28     C    0.77070   0.89724   0.48450   1.000
    C29     C    0.82671   0.95335   0.48960   1.000
    C30     C    0.93436   0.48517   0.67249   1.000
    C31     C    0.89707   0.48436   0.77082   1.000
    C32     C    0.95321   0.48947   0.82681   1.000
    C33     C    0.48506   0.67246   0.93459   1.000
    C34     C    0.48419   0.77077   0.89728   1.000
    C35     C    0.48937   0.82676   0.95340   1.000
    C36     C    0.93436   0.67247   0.48525   1.000
    C37     C    0.89707   0.77079   0.48442   1.000
    C38     C    0.95321   0.82678   0.48950   1.000
    C39     C    0.48504   0.93451   0.67249   1.000
    C40     C    0.48419   0.89720   0.77081   1.000
    C41     C    0.48936   0.95333   0.82681   1.000
    C42     C    0.67242   0.48536   0.93463   1.000
    C43     C    0.77070   0.48447   0.89730   1.000
    C44     C    0.82671   0.48961   0.95341   1.000
    C45     C    0.32758   0.06543   0.51464   1.000
    C46     C    0.22930   0.10275   0.51551   1.000
    C47     C    0.17329   0.04665   0.51037   1.000
    C48     C    0.06563   0.51482   0.32750   1.000
    C49     C    0.10293   0.51563   0.22920   1.000
    C50     C    0.04679   0.51052   0.17320   1.000
    C51     C    0.51493   0.32753   0.06542   1.000
    C52     C    0.51580   0.22922   0.10273   1.000
    C53     C    0.51062   0.17323   0.04661   1.000
    C54     C    0.08118   0.08110   0.50820   1.000
    C55     C    0.02439   0.02435   0.50260   1.000
    C56     C    0.19415   0.19400   0.51868   1.000
    C57     C    0.50837   0.08111   0.08100   1.000
    C58     C    0.50264   0.02437   0.02435   1.000
    C59     C    0.51898   0.19402   0.19399   1.000
    C60     C    0.08119   0.50822   0.08107   1.000
    C61     C    0.02439   0.50260   0.02434   1.000
    C62     C    0.19415   0.51872   0.19398   1.000
    C63     C    0.91882   0.91890   0.49181   1.000
    C64     C    0.97561   0.97564   0.49741   1.000
    C65     C    0.80585   0.80600   0.48130   1.000
    C66     C    0.91881   0.49177   0.91894   1.000
    C67     C    0.97561   0.49739   0.97567   1.000
    C68     C    0.80584   0.48128   0.80604   1.000
    C69     C    0.49162   0.91887   0.91894   1.000
    C70     C    0.49735   0.97562   0.97567   1.000
    C71     C    0.48102   0.80597   0.80600   1.000
    O72     O    0.98364   0.35655   0.50471   1.000
    O73     O    0.11856   0.37535   0.52295   1.000
    O74     O    0.50491   0.98346   0.35650   1.000
    O75     O    0.52306   0.11847   0.37534   1.000
    O76     O    0.35661   0.50457   0.98339   1.000
    O77     O    0.37538   0.52274   0.11839   1.000
    O78     O    0.64341   0.01657   0.49545   1.000
    O79     O    0.62461   0.88159   0.47726   1.000
    O80     O    0.01635   0.49524   0.64345   1.000
    O81     O    0.88143   0.47699   0.62460   1.000
    O82     O    0.49510   0.64343   0.01660   1.000
    O83     O    0.47700   0.62465   0.88158   1.000
    O84     O    0.01635   0.64344   0.49531   1.000
    O85     O    0.88144   0.62465   0.47700   1.000
    O86     O    0.49509   0.01653   0.64345   1.000
    O87     O    0.47694   0.88152   0.62467   1.000
    O88     O    0.64338   0.49543   0.01660   1.000
    O89     O    0.62462   0.47725   0.88163   1.000
    O90     O    0.35659   0.98342   0.50457   1.000
    O91     O    0.37538   0.11841   0.52275   1.000
    O92     O    0.98365   0.50475   0.35657   1.000
    O93     O    0.11856   0.52301   0.37535   1.000
    O94     O    0.50489   0.35656   0.98342   1.000
    O95     O    0.52300   0.37534   0.11843   1.000
loop_
    _geom_bond_atom_site_label_1
    _geom_bond_atom_site_label_2
    _geom_bond_distance
    _geom_bond_site_symmetry_2
    _ccdc_geom_bond_type
    O82    C33       1.27928  1_554   S
    O88    C42       1.27887  1_554   S
    H5     C35       1.08671  1_554   S
    H8     C44       1.08771  1_554   S
    C61    C60       1.41772      .   S
    C61    C67       1.21906  1_454   S
    C58    C57       1.41654      .   S
    C58    C70       1.21912  1_544   S
    C26    C60       1.40848      .   S
    C26    C25       1.39793      .   S
    C26    H2        1.08757  1_554   S
    C53    C57       1.40825      .   S
    C53    C52       1.39777      .   S
    C53    H11       1.08758  1_554   S
    C24    C25       1.49615      .   S
    C24    O77       1.27788      .   S
    C24    O76       1.27928  1_554   S
    C51    C52       1.49606      .   S
    C51    O95       1.27780      .   S
    C51    O94       1.27916  1_554   S
    C57    C23       1.40954      .   S
    C60    C50       1.40842      .   S
    C25    C62       1.39996      .   S
    C52    C59       1.39994      .   S
    C50    H10       1.08803  1_455   S
    C50    C49       1.39799      .   S
    C23    H1        1.08798  1_545   S
    C23    C22       1.39778      .   S
    C62    C49       1.39984      .   S
    C62    H14       1.08735      .   S
    C59    C22       1.39983      .   S
    C59    H13       1.08725      .   S
    C22    C21       1.49602      .   S
    C49    C48       1.49586      .   S
    C48    O92       1.27970  1_455   S
    C48    O93       1.27814      .   S
    C21    O74       1.27957  1_545   S
    C21    O75       1.27784      .   S
    O85    C36       1.27819      .   S
    O79    C27       1.27789      .   S
    H15    C65       1.08715      .   S
    C65    C37       1.39998      .   S
    C65    C28       1.40003      .   S
    C37    C36       1.49635      .   S
    C37    C38       1.39788      .   S
    C28    C27       1.49624      .   S
    C28    C29       1.39767      .   S
    C36    O84       1.27967  1_655   S
    C27    O78       1.27962  1_565   S
    C38    C63       1.40852      .   S
    C38    H6        1.08807  1_655   S
    C29    C63       1.40860      .   S
    C29    H3        1.08786  1_565   S
    C63    C64       1.41778      .   S
    C64    C55       1.21963  1_665   S
    C55    C54       1.41779      .   S
    O90    C45       1.27960  1_565   S
    O72    C18       1.27969  1_655   S
    H9     C47       1.08799  1_565   S
    H0     C20       1.08803  1_655   S
    C54    C47       1.40849      .   S
    C54    C20       1.40849      .   S
    C47    C46       1.39791      .   S
    C20    C19       1.39792      .   S
    C45    C46       1.49626      .   S
    C45    O91       1.27782      .   S
    C18    C19       1.49638      .   S
    C18    O73       1.27782      .   S
    C46    C56       1.39994      .   S
    C19    C56       1.39989      .   S
    C56    H12       1.08732      .   S
    O81    C30       1.27859      .   S
    O87    C39       1.27783      .   S
    O80    C30       1.27966  1_455   S
    O86    C39       1.27966  1_545   S
    C39    C40       1.49602      .   S
    C30    C31       1.49629      .   S
    H17    C71       1.08699      .   S
    H16    C68       1.08735      .   S
    C40    C71       1.39979      .   S
    C40    C41       1.39788      .   S
    C31    C68       1.39985      .   S
    C31    C32       1.39787      .   S
    H4     C32       1.08802  1_455   S
    H7     C41       1.08802  1_545   S
    C71    C34       1.40022      .   S
    C68    C43       1.39995      .   S
    C32    C66       1.40842      .   S
    C41    C69       1.40838      .   S
    O83    C33       1.27776      .   S
    O89    C42       1.27791      .   S
    C34    C33       1.49606      .   S
    C34    C35       1.39776      .   S
    C43    C42       1.49614      .   S
    C43    C44       1.39784      .   S
    C69    C35       1.40840      .   S
    C69    C70       1.41752      .   S
    C66    C44       1.40848      .   S
    C66    C67       1.41774      .   S
