# CIF file generated by openbabel 2.4.90, see http://openbabel.sf.net
data_I
_chemical_name_common ''
_cell_length_a 15.541
_cell_length_b 15.536
_cell_length_c 15.533
_cell_angle_alpha 76.13
_cell_angle_beta 76.134
_cell_angle_gamma 76.139
_space_group_name_H-M_alt 'P 1'
_space_group_name_Hall 'P 1'
loop_
    _symmetry_equiv_pos_as_xyz
    x,y,z
loop_
    _atom_site_label
    _atom_site_type_symbol
    _atom_site_fract_x
    _atom_site_fract_y
    _atom_site_fract_z
    _atom_site_occupancy
    Zn0     Zn   0.51083   0.07562   0.51080   1.000
    Zn1     Zn   0.51081   0.51082   0.07565   1.000
    Zn2     Zn   0.48917   0.92438   0.48918   1.000
    Zn3     Zn   0.92444   0.48915   0.48917   1.000
    Zn4     Zn   0.48919   0.48917   0.92437   1.000
    Zn5     Zn   0.07554   0.51084   0.51085   1.000
loop_
    _geom_bond_atom_site_label_1
    _geom_bond_atom_site_label_2
    _geom_bond_distance
    _geom_bond_site_symmetry_2
    _ccdc_geom_bond_type
    Zn5    Zn3       2.56001  1_455   S
    Zn0    Zn2       2.56095  1_545   S
    Zn1    Zn4       2.56112  1_554   S
