# CIF file generated by openbabel 2.4.90, see http://openbabel.sf.net
data_I
_chemical_name_common ''
_cell_length_a 15.541
_cell_length_b 15.536
_cell_length_c 15.533
_cell_angle_alpha 76.13
_cell_angle_beta 76.134
_cell_angle_gamma 76.139
_space_group_name_H-M_alt 'P 1'
_space_group_name_Hall 'P 1'
loop_
    _symmetry_equiv_pos_as_xyz
    x,y,z
loop_
    _atom_site_label
    _atom_site_type_symbol
    _atom_site_fract_x
    _atom_site_fract_y
    _atom_site_fract_z
    _atom_site_occupancy
    N0      N    0.50000   1.00000   0.00000   1.000
    N1      N    1.00000   0.50000   0.00000   1.000
    N2      N    1.00000   1.00000   0.50000   1.000
    Zr3     Zr   0.50000   0.50000   0.00001   1.000
    Zr4     Zr   0.99999   0.50000   0.50001   1.000
    Zr5     Zr   0.50000   0.00000   0.49999   1.000
    O6      O    0.50175   0.00637   0.35823   1.000
    O7      O    0.49825   0.99363   0.64175   1.000
    O8      O    0.50174   0.35824   0.00637   1.000
    O9      O    0.49825   0.64175   0.99364   1.000
    O10     O    0.99361   0.64175   0.49828   1.000
    O11     O    0.00638   0.35824   0.50173   1.000
    O12     O    0.64175   0.99364   0.49829   1.000
    O13     O    0.35825   0.00636   0.50170   1.000
    O14     O    0.00638   0.50173   0.35825   1.000
    O15     O    0.99361   0.49826   0.64176   1.000
    O16     O    0.64175   0.49829   0.99365   1.000
    O17     O    0.35825   0.50170   0.00637   1.000
loop_
    _geom_bond_atom_site_label_1
    _geom_bond_atom_site_label_2
    _geom_bond_distance
    _geom_bond_site_symmetry_2
    _ccdc_geom_bond_type
    N0     O6        5.59567  1_565   S
    Zr5    O6        2.17418      .   S
    N0     O7        5.59588  1_554   S
    Zr5    O7        2.17424  1_545   S
    N0     O8        5.59688  1_565   S
    Zr3    O8        2.17464      .   S
    N0     O9        5.59682  1_554   S
    Zr3    O9        2.17462  1_554   S
    N2     O10       5.59688      .   S
    Zr4    O10       2.17461      .   S
    N2     O11       5.59688  1_665   S
    Zr4    O11       2.17462  1_655   S
    N2     O12       5.59856      .   S
    Zr5    O12       2.17543  1_545   S
    N2     O13       5.59853  1_665   S
    Zr5    O13       2.17540      .   S
    Zr4    O14       2.17418  1_655   S
    N1     O14       5.59589  1_655   S
    Zr4    O15       2.17408      .   S
    N1     O15       5.59585  1_554   S
    N1     O16       5.59854  1_554   S
    Zr3    O16       2.17539  1_554   S
    N1     O17       5.59857  1_655   S
    Zr3    O17       2.17541      .   S
