# CIF file generated by openbabel 2.4.90, see http://openbabel.sf.net
data_I
_chemical_name_common ''
_cell_length_a 15.541
_cell_length_b 15.536
_cell_length_c 15.533
_cell_angle_alpha 76.13
_cell_angle_beta 76.134
_cell_angle_gamma 76.139
_space_group_name_H-M_alt 'P 1'
_space_group_name_Hall 'P 1'
loop_
    _symmetry_equiv_pos_as_xyz
    x,y,z
loop_
    _atom_site_label
    _atom_site_type_symbol
    _atom_site_fract_x
    _atom_site_fract_y
    _atom_site_fract_z
    _atom_site_occupancy
    N0      N    0.50000   1.00000   0.00000   1.000
    N1      N    1.00000   0.50000   0.00000   1.000
    N2      N    1.00000   1.00000   0.50000   1.000
    Zr3     Zr   0.50000   0.50000   0.00001   1.000
    O4      O    0.35572   0.49922   0.98848   1.000
    O5      O    0.49577   0.63922   0.97575   1.000
    O6      O    0.63922   0.49580   0.97576   1.000
    O7      O    0.49926   0.35571   0.98848   1.000
    O8      O    0.50074   0.64428   0.01154   1.000
    O9      O    0.64427   0.50078   0.01154   1.000
    O10     O    0.50423   0.36077   0.02427   1.000
    O11     O    0.36077   0.50419   0.02426   1.000
    Zr12    Zr   0.99999   0.50000   0.50001   1.000
    O13     O    0.01148   0.50076   0.64429   1.000
    O14     O    0.02426   0.36077   0.50423   1.000
    O15     O    0.01148   0.64428   0.50077   1.000
    O16     O    0.02426   0.50423   0.36078   1.000
    O17     O    0.98851   0.49924   0.35572   1.000
    O18     O    0.97573   0.49577   0.63923   1.000
    O19     O    0.98851   0.35571   0.49924   1.000
    O20     O    0.97573   0.63922   0.49578   1.000
    Zr21    Zr   0.50000   0.00000   0.49999   1.000
    O22     O    0.49576   0.97574   0.63923   1.000
    O23     O    0.49926   0.98848   0.35571   1.000
    O24     O    0.63922   0.97575   0.49580   1.000
    O25     O    0.35572   0.98848   0.49921   1.000
    O26     O    0.50074   0.01152   0.64428   1.000
    O27     O    0.50423   0.02426   0.36076   1.000
    O28     O    0.64428   0.01152   0.50078   1.000
    O29     O    0.36078   0.02425   0.50419   1.000
loop_
    _geom_bond_atom_site_label_1
    _geom_bond_atom_site_label_2
    _geom_bond_distance
    _geom_bond_site_symmetry_2
    _ccdc_geom_bond_type
    Zr3    O4        2.29482  1_554   S
    N1     O4        5.48535  1_654   S
    Zr3    O5        2.09241  1_554   S
    N0     O5        5.72381  1_554   S
    Zr3    O6        2.09316  1_554   S
    N1     O6        5.72549  1_554   S
    Zr3    O7        2.29405  1_554   S
    N0     O7        5.48362  1_564   S
    Zr3    O8        2.29402      .   S
    N0     O8        5.48357      .   S
    Zr3    O9        2.29479      .   S
    N1     O9        5.48533      .   S
    Zr3    O10       2.09241      .   S
    N0     O10       5.72388  1_565   S
    Zr3    O11       2.09317      .   S
    N1     O11       5.72553  1_655   S
    Zr12   O13       2.29354  1_655   S
    N1     O13       5.48247  1_654   S
    Zr12   O14       2.09241  1_655   S
    N2     O14       5.72391  1_665   S
    Zr12   O15       2.29401  1_655   S
    N2     O15       5.48357  1_655   S
    Zr12   O16       2.09198  1_655   S
    N1     O16       5.72293  1_655   S
    Zr12   O17       2.29357      .   S
    N1     O17       5.48258      .   S
    Zr12   O18       2.09181      .   S
    N1     O18       5.72296  1_554   S
    Zr12   O19       2.29401      .   S
    N2     O19       5.48358  1_565   S
    Zr12   O20       2.09239      .   S
    N2     O20       5.72393      .   S
    Zr21   O22       2.09206  1_545   S
    N0     O22       5.72288  1_554   S
    Zr21   O23       2.29363  1_545   S
    N0     O23       5.48235      .   S
    Zr21   O24       2.09315  1_545   S
    N2     O24       5.72557      .   S
    Zr21   O25       2.29484  1_545   S
    N2     O25       5.48527  1_655   S
    Zr21   O26       2.29363      .   S
    N0     O26       5.48262  1_564   S
    Zr21   O27       2.09193      .   S
    N0     O27       5.72274  1_565   S
    Zr21   O28       2.29487      .   S
    N2     O28       5.48529  1_565   S
    Zr21   O29       2.09313      .   S
    N2     O29       5.72553  1_665   S
