# CIF file generated by openbabel 2.4.90, see http://openbabel.sf.net
data_I
_chemical_name_common ''
_cell_length_a 13.463
_cell_length_b 13.224
_cell_length_c 13.238
_cell_angle_alpha 91.965
_cell_angle_beta 98.987
_cell_angle_gamma 81.006
_space_group_name_H-M_alt 'P 1'
_space_group_name_Hall 'P 1'
loop_
    _symmetry_equiv_pos_as_xyz
    x,y,z
loop_
    _atom_site_label
    _atom_site_type_symbol
    _atom_site_fract_x
    _atom_site_fract_y
    _atom_site_fract_z
    _atom_site_occupancy
    Mc0     Mc   0.38175   0.09293   0.00237   1.000
    Mc1     Mc   0.75386   0.68500   0.99276   1.000
    Mc2     Mc   0.57559   0.68245   0.36605   1.000
    Mc3     Mc   0.79573   0.07030   0.36127   1.000
    Mc4     Mc   0.07543   0.63398   0.31245   1.000
    Mc5     Mc   0.25378   0.00720   0.31491   1.000
    Mc6     Mc   0.29670   0.63863   0.92774   1.000
    Mc7     Mc   0.88133   0.99709   0.90540   1.000
