# CIF file generated by openbabel 2.4.90, see http://openbabel.sf.net
data_I
_chemical_name_common ''
_cell_length_a 13.463
_cell_length_b 13.224
_cell_length_c 13.238
_cell_angle_alpha 91.965
_cell_angle_beta 98.987
_cell_angle_gamma 81.006
_space_group_name_H-M_alt 'P 1'
_space_group_name_Hall 'P 1'
loop_
    _symmetry_equiv_pos_as_xyz
    x,y,z
loop_
    _atom_site_label
    _atom_site_type_symbol
    _atom_site_fract_x
    _atom_site_fract_y
    _atom_site_fract_z
    _atom_site_occupancy
    H0      H    0.49352   0.00000   0.21104   1.000
    H1      H    0.45000   0.92310   0.13050   1.000
    H2      H    0.62890   0.88407   0.01175   1.000
    H3      H    0.57545   0.78621   0.06570   1.000
    H4      H    0.59897   0.89354   0.33159   1.000
    H5      H    0.69640   0.80177   0.28875   1.000
    H6      H    0.70139   0.00000   0.13211   1.000
    H7      H    0.77258   0.92194   0.21410   1.000
    H8      H    0.32062   0.05411   0.11075   1.000
    H9      H    0.50694   0.12510   0.89232   1.000
    H10     H    0.16859   0.14980   0.00000   1.000
    H11     H    0.35608   0.22320   0.79040   1.000
    H12     H    0.62587   0.73113   0.91678   1.000
    H13     H    0.90424   0.66385   0.12979   1.000
    H14     H    0.68997   0.59678   0.80049   1.000
    H15     H    0.97236   0.53215   0.00713   1.000
    H16     H    0.45055   0.61643   0.22921   1.000
    H17     H    0.66271   0.76570   0.43878   1.000
    H18     H    0.45696   0.48335   0.36143   1.000
    H19     H    0.66895   0.63292   0.56652   1.000
    H20     H    0.88586   0.99468   0.27973   1.000
    H21     H    0.64592   0.14971   0.43665   1.000
    H22     H    0.00000   0.05919   0.41076   1.000
    H23     H    0.77565   0.21815   0.56459   1.000
    H24     H    0.99352   0.78877   0.97636   1.000
    H25     H    0.95003   0.86947   0.07693   1.000
    H26     H    0.12889   0.98837   0.11594   1.000
    H27     H    0.07538   0.93433   0.21366   1.000
    H28     H    0.09896   0.66819   0.10655   1.000
    H29     H    0.19637   0.71111   0.19821   1.000
    H30     H    0.20149   0.86795   0.97868   1.000
    H31     H    0.27259   0.78567   0.07810   1.000
    H32     H    0.82084   0.88896   0.94619   1.000
    H33     H    0.00000   0.10763   0.87477   1.000
    H34     H    0.66876   0.99486   0.85027   1.000
    H35     H    0.85603   0.20941   0.77658   1.000
    H36     H    0.12573   0.08331   0.26899   1.000
    H37     H    0.40418   0.87003   0.33578   1.000
    H38     H    0.18984   0.19954   0.40337   1.000
    H39     H    0.47231   0.99264   0.46754   1.000
    H40     H    0.95043   0.77109   0.38328   1.000
    H41     H    0.16263   0.56104   0.23438   1.000
    H42     H    0.95684   0.63891   0.51600   1.000
    H43     H    0.16888   0.43335   0.36720   1.000
    H44     H    0.38583   0.72034   0.00000   1.000
    H45     H    0.14591   0.56319   0.85038   1.000
    H46     H    0.51368   0.58928   0.94049   1.000
    H47     H    0.27564   0.43523   0.78182   1.000
    C48     C    0.61443   0.90628   0.17244   1.000
    C49     C    0.50955   0.97245   0.14647   1.000
    C50     C    0.63362   0.83717   0.07989   1.000
    C51     C    0.61833   0.84244   0.26789   1.000
    C52     C    0.69952   0.97287   0.19737   1.000
    C53     C    0.42354   0.08261   0.00716   1.000
    C54     C    0.32832   0.08917   0.03970   1.000
    C55     C    0.43287   0.13094   0.91712   1.000
    C56     C    0.24315   0.14324   0.98061   1.000
    C57     C    0.34768   0.18508   0.85943   1.000
    C58     C    0.25134   0.19149   0.89002   1.000
    C59     C    0.76158   0.70538   0.03140   1.000
    C60     C    0.70093   0.68691   0.93862   1.000
    C61     C    0.85921   0.64871   0.05668   1.000
    C62     C    0.73758   0.61029   0.87270   1.000
    C63     C    0.89616   0.57546   0.98888   1.000
    C64     C    0.83518   0.55432   0.89661   1.000
    C65     C    0.55593   0.69919   0.32498   1.000
    C66     C    0.49731   0.61977   0.30396   1.000
    C67     C    0.61723   0.70465   0.42031   1.000
    C68     C    0.50133   0.54584   0.37731   1.000
    C69     C    0.62065   0.63003   0.49279   1.000
    C70     C    0.56352   0.54980   0.47267   1.000
    C71     C    0.75708   0.06805   0.35041   1.000
    C72     C    0.86076   0.04215   0.34248   1.000
    C73     C    0.72676   0.13077   0.43100   1.000
    C74     C    0.93300   0.07896   0.41581   1.000
    C75     C    0.79924   0.16851   0.50261   1.000
    C76     C    0.90351   0.14323   0.49575   1.000
    C77     C    0.11444   0.82749   0.09374   1.000
    C78     C    0.00960   0.85345   0.02764   1.000
    C79     C    0.13358   0.92014   0.16277   1.000
    C80     C    0.11832   0.73199   0.15750   1.000
    C81     C    0.19955   0.80255   0.02723   1.000
    C82     C    0.92365   0.99268   0.91745   1.000
    C83     C    0.82848   0.95998   0.91099   1.000
    C84     C    0.93290   0.08276   0.86900   1.000
    C85     C    0.74329   0.01902   0.85681   1.000
    C86     C    0.84770   0.14037   0.81480   1.000
    C87     C    0.75143   0.10963   0.80844   1.000
    C88     C    0.26150   0.96855   0.29452   1.000
    C89     C    0.20081   0.06141   0.31312   1.000
    C90     C    0.35915   0.94318   0.35105   1.000
    C91     C    0.23746   0.12729   0.38975   1.000
    C92     C    0.39609   0.01098   0.42431   1.000
    C93     C    0.33508   0.10329   0.44559   1.000
    C94     C    0.05585   0.67506   0.30071   1.000
    C95     C    0.99720   0.69624   0.38003   1.000
    C96     C    0.11715   0.57962   0.29536   1.000
    C97     C    0.00000   0.62291   0.45398   1.000
    C98     C    0.12057   0.50717   0.30000   1.000
    C99     C    0.06342   0.52744   0.45012   1.000
    C100    C    0.25707   0.64953   0.93191   1.000
    C101    C    0.36073   0.65753   0.95760   1.000
    C102    C    0.22675   0.56839   0.86920   1.000
    C103    C    0.43297   0.58418   0.92080   1.000
    C104    C    0.29923   0.49727   0.83141   1.000
    C105    C    0.40349   0.50417   0.85660   1.000
    O106    O    0.51225   0.03074   0.05765   1.000
    O107    O    0.73294   0.77754   0.10220   1.000
    O108    O    0.54939   0.76886   0.24846   1.000
    O109    O    0.67893   0.03598   0.28437   1.000
    O110    O    0.01237   0.94226   0.96934   1.000
    O111    O    0.23288   0.89776   0.22236   1.000
    O112    O    0.04934   0.75156   0.23102   1.000
    O113    O    0.17893   0.71557   0.96409   1.000
loop_
    _geom_bond_atom_site_label_1
    _geom_bond_atom_site_label_2
    _geom_bond_distance
    _geom_bond_site_symmetry_2
    _ccdc_geom_bond_type
    H44    C101      1.05628  1_554   S
    H10    C56       1.06422  1_554   S
    H15    C63       1.08953  1_554   S
    C53    C54       1.40426      .   S
    C53    O106      1.36728      .   S
    C53    C55       1.40321  1_554   S
    H2     C50       1.10025      .   S
    C81    H31       1.09775      .   S
    C81    C77       1.54082      .   S
    C81    O113      1.43539  1_554   S
    C81    H30       1.10089  1_554   S
    C78    H25       1.10210  1_455   S
    C78    C77       1.53596      .   S
    C78    O110      1.43566  1_554   S
    C78    H24       1.10071  1_454   S
    C59    C61       1.40460      .   S
    C59    O107      1.36903      .   S
    C59    C60       1.40121  1_554   S
    C54    H8        1.08893      .   S
    C54    C56       1.39274  1_554   S
    C61    H13       1.08885      .   S
    C61    C63       1.38585  1_554   S
    O106   C49       1.43608  1_545   S
    H3     C50       1.10146      .   S
    C50    O107      1.43527      .   S
    C50    C48       1.53338      .   S
    C77    C80       1.53256      .   S
    C77    C79       1.53330      .   S
    H28    C80       1.09971      .   S
    H26    C79       1.10030      .   S
    H1     C49       1.10205      .   S
    H6     C52       0.95215  1_545   S
    C49    C48       1.53628      .   S
    C49    H0        0.96004  1_565   S
    C80    H29       1.10156      .   S
    C80    O112      1.43761      .   S
    C79    H27       1.10150      .   S
    C79    O111      1.43522      .   S
    C48    C52       1.54087      .   S
    C48    C51       1.53317      .   S
    C52    H7        1.09773      .   S
    C52    O109      1.43574  1_565   S
    O111   C88       1.36891      .   S
    H16    C66       1.09024      .   S
    O112   C94       1.37589      .   S
    H41    C96       1.08656      .   S
    O108   C51       1.43699      .   S
    O108   C65       1.37602      .   S
    C51    H5        1.10133      .   S
    C51    H4        1.10010      .   S
    H36    C89       1.08745      .   S
    H20    C72       1.08812  1_565   S
    O109   C71       1.37041      .   S
    C88    C89       1.40162  1_565   S
    C88    C90       1.40455      .   S
    C96    C98       0.95549      .   S
    C96    C94       1.40208      .   S
    C98    H43       1.35928      .   S
    C94    C95       1.40503  1_455   S
    C66    C65       1.40498      .   S
    C66    C68       1.39057      .   S
    C89    C91       1.39603      .   S
    C65    C67       1.40209      .   S
    H37    C90       1.08883      .   S
    C72    C71       1.40368      .   S
    C72    C74       1.39496      .   S
    C71    C73       1.40082      .   S
    C90    C92       1.38598  1_565   S
    H18    C68       1.08949      .   S
    C68    C70       1.40582      .   S
    C95    H40       1.09024      .   S
    C95    C97       1.39369  1_655   S
    C91    H38       1.09056      .   S
    C91    C93       1.39883      .   S
    H22    C74       0.91126  1_455   S
    C74    C76       1.40136      .   S
    C67    H17       1.08662      .   S
    C67    C69       1.39045      .   S
    C92    C93       1.40686      .   S
    C92    H39       1.08978  1_545   S
    C73    H21       1.09163      .   S
    C73    C75       1.38954      .   S
    C99    C97       1.41341      .   S
    C97    H42       1.07478  1_455   S
    C70    C69       1.39993      .   S
    C69    H19       1.08807      .   S
    C76    C75       1.40767      .   S
    C75    H23       1.08822      .   S
    H35    C86       1.08803      .   S
    H47    C104      1.08823      .   S
    H11    C57       1.08797      .   S
    H14    C62       1.09050      .   S
    C87    C86       1.40718      .   S
    C87    C85       1.40469      .   S
    C86    C84       1.38497      .   S
    C104   C105      1.40767      .   S
    C104   C102      1.38576      .   S
    H34    C85       1.08974  1_565   S
    H45    C102      1.09023      .   S
    C105   C103      1.40127      .   S
    C85    C83       1.39317  1_545   S
    C57    C58       1.40734      .   S
    C57    C55       1.38500      .   S
    C84    H33       0.99977  1_655   S
    C84    C82       1.40353  1_545   S
    C102   C100      1.40610      .   S
    C62    C64       1.39884      .   S
    C62    C60       1.39607      .   S
    C58    C56       1.40478      .   S
    H9     C55       1.08846      .   S
    C64    C63       1.40684      .   S
    C83    C82       1.40437      .   S
    C83    H32       1.08849      .   S
    H12    C60       1.08742      .   S
    C82    O110      1.36717  1_655   S
    C103   H46       1.08927      .   S
    C103   C101      1.39448      .   S
    C100   C101      1.40359      .   S
    C100   O113      1.37046      .   S
