# CIF file generated by openbabel 2.4.90, see http://openbabel.sf.net
data_I
_chemical_name_common ''
_cell_length_a 13.463
_cell_length_b 13.224
_cell_length_c 13.238
_cell_angle_alpha 91.965
_cell_angle_beta 98.987
_cell_angle_gamma 81.006
_space_group_name_H-M_alt 'P 1'
_space_group_name_Hall 'P 1'
loop_
    _symmetry_equiv_pos_as_xyz
    x,y,z
loop_
    _atom_site_label
    _atom_site_type_symbol
    _atom_site_fract_x
    _atom_site_fract_y
    _atom_site_fract_z
    _atom_site_occupancy
    Zn0     Zn   0.17877   0.24447   0.60419   1.000
    Zn1     Zn   0.51292   0.28743   0.63492   1.000
    Zn2     Zn   0.67877   0.39573   0.75547   1.000
    Zn3     Zn   0.01290   0.36507   0.71216   1.000
    C4      C    0.15976   0.24921   0.83014   1.000
    C5      C    0.87651   0.47507   0.82567   1.000
    C6      C    0.57178   0.47068   0.55223   1.000
    C7      C    0.98005   0.18979   0.56793   1.000
    C8      C    0.65978   0.16921   0.75058   1.000
    C9      C    0.37645   0.17419   0.52484   1.000
    C10     C    0.07168   0.44786   0.52922   1.000
    C11     C    0.48005   0.43195   0.81000   1.000
    O12     O    0.07339   0.25682   0.85560   1.000
    O13     O    0.17047   0.29819   0.74700   1.000
    O14     O    0.82175   0.41226   0.77744   1.000
    O15     O    0.96914   0.47084   0.81401   1.000
    O16     O    0.52279   0.39561   0.53271   1.000
    O17     O    0.62997   0.48486   0.63630   1.000
    O18     O    0.07479   0.15624   0.56470   1.000
    O19     O    0.94625   0.26120   0.62666   1.000
    O20     O    0.57367   0.14311   0.74265   1.000
    O21     O    0.67019   0.25270   0.70180   1.000
    O22     O    0.32172   0.22249   0.58761   1.000
    O23     O    0.46911   0.18574   0.52911   1.000
    O24     O    0.02266   0.46743   0.60421   1.000
    O25     O    0.12991   0.36369   0.51510   1.000
    O26     O    0.57476   0.43517   0.84360   1.000
    O27     O    0.44630   0.37317   0.73868   1.000
    Og28    Og   0.19028   0.22997   0.85010   1.000
    Og29    Og   0.86273   0.50148   0.84932   1.000
    Og30    Og   0.56903   0.49705   0.52571   1.000
    Og31    Og   0.95453   0.17427   0.54387   1.000
    Og32    Og   0.69033   0.14935   0.76987   1.000
    Og33    Og   0.36266   0.15056   0.49842   1.000
    Og34    Og   0.06893   0.47439   0.50285   1.000
    Og35    Og   0.45453   0.45603   0.82553   1.000
loop_
    _geom_bond_atom_site_label_1
    _geom_bond_atom_site_label_2
    _geom_bond_distance
    _geom_bond_site_symmetry_2
    _ccdc_geom_bond_type
    O25    C10       1.28341      .   S
    O25    Zn0       1.96720      .   S
    C9     O23       1.27270      .   S
    C9     O22       1.28417      .   S
    O23    Zn1       1.99472      .   S
    C10    O24       1.27341      .   S
    O16    C6        1.27321      .   S
    O16    Zn1       2.03546      .   S
    C6     O17       1.28324      .   S
    O18    C7        1.29013  1_455   S
    O18    Zn0       1.95827      .   S
    C7     O19       1.27635      .   S
    O22    Zn0       1.94665      .   S
    Zn0    O13       2.01005      .   S
    O24    Zn3       2.03434      .   S
    O19    Zn3       1.98347  1_655   S
    Zn1    O27       1.98420      .   S
    O17    Zn2       1.96755      .   S
    O21    C8        1.33457      .   S
    O21    Zn2       2.01146      .   S
    Zn3    O15       1.99569  1_455   S
    O27    C11       1.27597      .   S
    O20    C8        1.24855      .   S
    O13    C4        1.33391      .   S
    Zn2    O14       1.94681      .   S
    Zn2    O26       1.95807      .   S
    O14    C5        1.28420      .   S
    C11    O26       1.29001      .   S
    O15    C5        1.27270      .   S
    C4     O12       1.24864      .   S
    O13    Zn3       2.15186      .   S
    O21    Zn1       2.14844      .   S
    C4     Og28      0.49140      .   S
    C5     Og29      0.49479      .   S
    C6     Og30      0.49655      .   S
    C7     Og31      0.49491      .   S
    C8     Og32      0.49129      .   S
    C9     Og33      0.49475      .   S
    C10    Og34      0.49651      .   S
    C11    Og35      0.49502      .   S
