# CIF file generated by openbabel 2.4.90, see http://openbabel.sf.net
data_I
_chemical_name_common ''
_cell_length_a 9.0205
_cell_length_b 9.026
_cell_length_c 19.517
_cell_angle_alpha 89.999
_cell_angle_beta 89.997
_cell_angle_gamma 68.782
_space_group_name_H-M_alt 'P 1'
_space_group_name_Hall 'P 1'
loop_
    _symmetry_equiv_pos_as_xyz
    x,y,z
loop_
    _atom_site_label
    _atom_site_type_symbol
    _atom_site_fract_x
    _atom_site_fract_y
    _atom_site_fract_z
    _atom_site_occupancy
    P0      P    0.36993   0.66662   0.41968   1.000
    P1      P    0.51250   0.19207   0.31046   1.000
    P2      P    0.49137   0.79571   0.15927   1.000
    P3      P    0.12984   0.83307   0.91969   1.000
    P4      P    0.98737   0.30760   0.81044   1.000
    P5      P    0.00872   0.70414   0.65933   1.000
    P6      P    0.63013   0.33315   0.58311   1.000
    P7      P    0.48754   0.80766   0.69232   1.000
    P8      P    0.50850   0.20404   0.84352   1.000
    P9      P    0.87002   0.16664   0.08309   1.000
    P10     P    0.01254   0.69214   0.19234   1.000
    P11     P    0.99132   0.29566   0.34347   1.000
    O12     O    0.26842   0.92682   0.24162   1.000
    O13     O    0.34355   0.82736   0.38612   1.000
    O14     O    0.41634   0.78108   0.23306   1.000
    O15     O    0.45810   0.05454   0.33072   1.000
    O16     O    0.62245   0.63255   0.15238   1.000
    O17     O    0.25716   0.58961   0.38888   1.000
    O18     O    0.63026   0.14101   0.25031   1.000
    O19     O    0.55418   0.93197   0.15866   1.000
    O20     O    0.36852   0.33895   0.28791   1.000
    O21     O    0.36640   0.82420   0.10328   1.000
    O22     O    0.54493   0.55684   0.40845   1.000
    O23     O    0.33308   0.69481   0.49632   1.000
    O24     O    0.59533   0.23117   0.37287   1.000
    O25     O    0.23160   0.57297   0.74168   1.000
    O26     O    0.15621   0.67225   0.88621   1.000
    O27     O    0.08375   0.71878   0.73312   1.000
    O28     O    0.04169   0.44519   0.83069   1.000
    O29     O    0.87768   0.86730   0.65243   1.000
    O30     O    0.24263   0.90997   0.88882   1.000
    O31     O    0.86969   0.35858   0.75027   1.000
    O32     O    0.94596   0.56786   0.65875   1.000
    O33     O    0.13140   0.16073   0.78791   1.000
    O34     O    0.13369   0.67562   0.60334   1.000
    O35     O    0.95485   0.94284   0.90845   1.000
    O36     O    0.16672   0.80504   0.00000   1.000
    O37     O    0.90453   0.26853   0.87285   1.000
    O38     O    0.73149   0.07292   0.76119   1.000
    O39     O    0.65648   0.17241   0.61666   1.000
    O40     O    0.58350   0.21861   0.76971   1.000
    O41     O    0.54201   0.94513   0.67206   1.000
    O42     O    0.37739   0.36718   0.85039   1.000
    O43     O    0.74294   0.41012   0.61389   1.000
    O44     O    0.36978   0.85873   0.75247   1.000
    O45     O    0.44573   0.06776   0.84416   1.000
    O46     O    0.63147   0.66073   0.71488   1.000
    O47     O    0.63347   0.17564   0.89950   1.000
    O48     O    0.45514   0.44295   0.59434   1.000
    O49     O    0.66695   0.30495   0.50645   1.000
    O50     O    0.40466   0.76864   0.62991   1.000
    O51     O    0.76842   0.42681   0.26112   1.000
    O52     O    0.84360   0.32744   0.11660   1.000
    O53     O    0.91633   0.28105   0.26967   1.000
    O54     O    0.95813   0.55464   0.17205   1.000
    O55     O    0.12240   0.13251   0.35036   1.000
    O56     O    0.75730   0.08962   0.11394   1.000
    O57     O    0.13029   0.64101   0.25248   1.000
    O58     O    0.05407   0.43195   0.34409   1.000
    O59     O    0.86857   0.83900   0.21493   1.000
    O60     O    0.86634   0.32414   0.39945   1.000
    O61     O    0.04502   0.05694   0.09432   1.000
    O62     O    0.83313   0.19475   0.00645   1.000
    O63     O    0.09535   0.73129   0.12994   1.000
loop_
    _geom_bond_atom_site_label_1
    _geom_bond_atom_site_label_2
    _geom_bond_distance
    _geom_bond_site_symmetry_2
    _ccdc_geom_bond_type
    O36    P3        1.60334  1_554   S
    O62    P9        1.53344      .   S
    P9     O61       1.54568  1_655   S
    P9     O56       1.54628      .   S
    P9     O52       1.52989      .   S
    O21    P2        1.52350      .   S
    O63    P10       1.53526      .   S
    O16    P2        1.52466      .   S
    O19    P2        1.52910      .   S
    P2     O14       1.61691      .   S
    O54    P10       1.54239  1_655   S
    P10    O59       1.54663  1_455   S
    P10    O57       1.53752      .   S
    O14    O12       1.50607      .   S
    O18    P1        1.53765      .   S
    O51    O53       1.50610      .   S
    O53    P11       1.61689      .   S
    O20    P1        1.54658      .   S
    P1     O15       1.54235      .   S
    P1     O24       1.53537      .   S
    P11    O58       1.52898  1_655   S
    P11    O55       1.52457  1_655   S
    P11    O60       1.52343      .   S
    O13    P0        1.52987      .   S
    O17    P0        1.54629      .   S
    O22    P0        1.54583      .   S
    P0     O23       1.53358      .   S
    O49    P6        1.53359      .   S
    P6     O48       1.54583      .   S
    P6     O43       1.54628      .   S
    P6     O39       1.52989      .   S
    O34    P5        1.52346      .   S
    O50    P7        1.53540      .   S
    O29    P5        1.52458  1_655   S
    O32    P5        1.52898  1_655   S
    P5     O27       1.61688      .   S
    O41    P7        1.54231      .   S
    P7     O46       1.54660      .   S
    P7     O44       1.53764      .   S
    O27    O25       1.50609      .   S
    O31    P4        1.53760      .   S
    O38    O40       1.50612      .   S
    O40    P8        1.61692      .   S
    O33    P4        1.54659  1_455   S
    P4     O28       1.54240  1_655   S
    P4     O37       1.53528      .   S
    P8     O45       1.52905      .   S
    P8     O42       1.52464      .   S
    P8     O47       1.52349      .   S
    O26    P3        1.52992      .   S
    O30    P3        1.54625      .   S
    O35    P3        1.54574  1_655   S
