# CIF file generated by openbabel 2.4.90, see http://openbabel.sf.net
data_I
_chemical_name_common ''
_cell_length_a 9.0205
_cell_length_b 9.026
_cell_length_c 19.517
_cell_angle_alpha 89.999
_cell_angle_beta 89.997
_cell_angle_gamma 68.782
_space_group_name_H-M_alt 'P 1'
_space_group_name_Hall 'P 1'
loop_
    _symmetry_equiv_pos_as_xyz
    x,y,z
loop_
    _atom_site_label
    _atom_site_type_symbol
    _atom_site_fract_x
    _atom_site_fract_y
    _atom_site_fract_z
    _atom_site_occupancy
    N0      N    0.95315   0.31535   0.32802   1.000
    N1      N    0.36973   0.66705   0.41989   1.000
    N2      N    0.51294   0.19155   0.31045   1.000
    N3      N    0.45319   0.81539   0.17471   1.000
    N4      N    0.98694   0.30813   0.81043   1.000
    N5      N    0.04690   0.68444   0.67477   1.000
    N6      N    0.13005   0.83264   0.92063   1.000
    N7      N    0.86981   0.16708   0.08288   1.000
    N8      N    0.63033   0.33272   0.58289   1.000
    N9      N    0.01297   0.69162   0.19235   1.000
    N10     N    0.54668   0.18436   0.82808   1.000
    N11     N    0.48709   0.80818   0.69233   1.000
    Zr12    Zr   0.80311   0.48035   0.17630   1.000
    O13     O    0.82485   0.38292   0.14548   1.000
    O14     O    0.87495   0.54245   0.17978   1.000
    O15     O    0.83628   0.43241   0.22483   1.000
    O16     O    0.69305   0.58314   0.17291   1.000
    Zr17    Zr   0.16692   0.85640   0.08283   1.000
    O18     O    0.15768   0.84404   0.03192   1.000
    O19     O    0.11949   0.79956   0.11610   1.000
    O20     O    0.26342   0.84212   0.10835   1.000
    O21     O    0.07741   0.95913   0.08428   1.000
    Zr22    Zr   0.69698   0.01945   0.67633   1.000
    O23     O    0.67525   0.11688   0.64551   1.000
    O24     O    0.62513   0.95734   0.67980   1.000
    O25     O    0.66372   0.06736   0.72488   1.000
    O26     O    0.80705   0.91668   0.67295   1.000
    Zr27    Zr   0.29474   0.99842   0.81762   1.000
    O28     O    0.35221   0.93340   0.77815   1.000
    O29     O    0.37660   0.05357   0.82355   1.000
    O30     O    0.19737   0.09614   0.81211   1.000
    O31     O    0.24705   0.94592   0.85227   1.000
    Zr32    Zr   0.30306   0.98032   0.32645   1.000
    O33     O    0.19300   0.08310   0.32983   1.000
    O34     O    0.37491   0.04240   0.32299   1.000
    O35     O    0.32479   0.88288   0.35727   1.000
    O36     O    0.33626   0.93240   0.27791   1.000
    Zr37    Zr   0.66691   0.35631   0.41995   1.000
    O38     O    0.65777   0.34399   0.47150   1.000
    O39     O    0.57737   0.45906   0.41850   1.000
    O40     O    0.76340   0.34205   0.39441   1.000
    O41     O    0.61947   0.29948   0.38669   1.000
    Zr42    Zr   0.79489   0.49849   0.68517   1.000
    O43     O    0.69751   0.59619   0.69067   1.000
    O44     O    0.74725   0.44600   0.65069   1.000
    O45     O    0.85225   0.43341   0.72462   1.000
    O46     O    0.87677   0.55365   0.67927   1.000
    Zr47    Zr   0.19677   0.51941   0.82648   1.000
    O48     O    0.30682   0.41662   0.82987   1.000
    O49     O    0.12492   0.45731   0.82299   1.000
    O50     O    0.16365   0.56736   0.77795   1.000
    O51     O    0.17502   0.61682   0.85748   1.000
    Zr52    Zr   0.83296   0.14339   0.91995   1.000
    O53     O    0.84219   0.15573   0.97150   1.000
    O54     O    0.92247   0.04063   0.91869   1.000
    O55     O    0.73645   0.15766   0.89443   1.000
    O56     O    0.88040   0.20022   0.88668   1.000
    Zr57    Zr   0.20516   0.50124   0.31762   1.000
    O58     O    0.14775   0.56631   0.27816   1.000
    O59     O    0.30252   0.40353   0.31211   1.000
    O60     O    0.12327   0.44611   0.32353   1.000
    O61     O    0.25280   0.55374   0.35209   1.000
    Zr62    Zr   0.70522   0.00127   0.18518   1.000
    O63     O    0.80258   0.90357   0.19069   1.000
    O64     O    0.75288   0.05376   0.15070   1.000
    O65     O    0.64778   0.06631   0.22464   1.000
    O66     O    0.62333   0.94614   0.17925   1.000
    Zr67    Zr   0.33312   0.64347   0.58283   1.000
    O68     O    0.38056   0.70029   0.61609   1.000
    O69     O    0.42268   0.54071   0.58429   1.000
    O70     O    0.34227   0.65578   0.53128   1.000
    O71     O    0.23664   0.65773   0.60838   1.000
loop_
    _geom_bond_atom_site_label_1
    _geom_bond_atom_site_label_2
    _geom_bond_distance
    _geom_bond_site_symmetry_2
    _ccdc_geom_bond_type
    Zr12   O13       1.02408      .   S
    N7     O13       2.20923      .   S
    Zr12   O14       1.00087      .   S
    N9     O14       2.15319  1_455   S
    Zr12   O15       1.03943      .   S
    N0     O15       2.34049      .   S
    Zr12   O16       1.08812      .   S
    N3     O16       2.40706      .   S
    Zr17   O18       1.00651      .   S
    N6     O18       2.19298  1_556   S
    Zr17   O19       1.01326      .   S
    N9     O19       2.18282      .   S
    Zr17   O20       0.97028      .   S
    N3     O20       2.08972      .   S
    Zr17   O21       0.98525      .   S
    N7     O21       2.11803  1_645   S
    Zr22   O23       1.02417      .   S
    N8     O23       2.20944      .   S
    Zr22   O24       1.00087  1_545   S
    N11    O24       2.15324      .   S
    Zr22   O25       1.03959      .   S
    N10    O25       2.34091      .   S
    Zr22   O26       1.08808  1_545   S
    N5     O26       2.40696  1_455   S
    Zr27   O28       0.99308      .   S
    N11    O28       2.13729      .   S
    Zr27   O29       1.03566  1_565   S
    N10    O29       2.25084      .   S
    Zr27   O30       1.00008  1_565   S
    N4     O30       2.15324  1_655   S
    Zr27   O31       1.00724      .   S
    N6     O31       2.17265      .   S
    Zr32   O33       1.08811  1_565   S
    N0     O33       2.40704  1_655   S
    Zr32   O34       1.00079  1_565   S
    N2     O34       2.15304      .   S
    Zr32   O35       1.02415      .   S
    N1     O35       2.20938      .   S
    Zr32   O36       1.03946      .   S
    N3     O36       2.34060      .   S
    Zr37   O38       1.01881      .   S
    N8     O38       2.19461      .   S
    Zr37   O39       0.98544      .   S
    N1     O39       2.11846      .   S
    Zr37   O40       0.97032      .   S
    N0     O40       2.08984      .   S
    Zr37   O41       1.01319      .   S
    N2     O41       2.18267      .   S
    Zr42   O43       1.00004      .   S
    N11    O43       2.15316      .   S
    Zr42   O44       1.00465      .   S
    N8     O44       2.16558      .   S
    Zr42   O45       0.99282      .   S
    N4     O45       2.13661      .   S
    Zr42   O46       1.03584      .   S
    N5     O46       2.25119  1_455   S
    Zr47   O48       1.08813      .   S
    N10    O48       2.40710      .   S
    Zr47   O49       1.00083      .   S
    N4     O49       2.15310  1_655   S
    Zr47   O50       1.03924      .   S
    N5     O50       2.34004      .   S
    Zr47   O51       1.02611      .   S
    N6     O51       2.21499      .   S
    Zr52   O53       1.01886      .   S
    N7     O53       2.19472  1_554   S
    Zr52   O54       0.98525      .   S
    N6     O54       2.11842  1_465   S
    Zr52   O55       0.97028      .   S
    N10    O55       2.08972      .   S
    Zr52   O56       1.01324      .   S
    N4     O56       2.18276      .   S
    Zr57   O58       0.99298      .   S
    N9     O58       2.13701      .   S
    Zr57   O59       1.00002      .   S
    N2     O59       2.15312      .   S
    Zr57   O60       1.03568      .   S
    N0     O60       2.25087  1_655   S
    Zr57   O61       1.00470      .   S
    N1     O61       2.16573      .   S
    Zr62   O63       0.99993  1_545   S
    N9     O63       2.15287  1_455   S
    Zr62   O64       1.00479      .   S
    N7     O64       2.16593      .   S
    Zr62   O65       0.99298      .   S
    N2     O65       2.13705      .   S
    Zr62   O66       1.03574  1_545   S
    N3     O66       2.25102      .   S
    Zr67   O68       1.01311      .   S
    N11    O68       2.18249      .   S
    Zr67   O69       0.98550      .   S
    N8     O69       2.11860      .   S
    Zr67   O70       1.01882      .   S
    N1     O70       2.19465      .   S
    Zr67   O71       0.97033      .   S
    N5     O71       2.08988      .   S
