# CIF file generated by openbabel 2.4.90, see http://openbabel.sf.net
data_I
_chemical_name_common ''
_cell_length_a 12.549
_cell_length_b 22.954
_cell_length_c 14.84
_cell_angle_alpha 90
_cell_angle_beta 90
_cell_angle_gamma 89.999
_space_group_name_H-M_alt 'P 1'
_space_group_name_Hall 'P 1'
loop_
    _symmetry_equiv_pos_as_xyz
    x,y,z
loop_
    _atom_site_label
    _atom_site_type_symbol
    _atom_site_fract_x
    _atom_site_fract_y
    _atom_site_fract_z
    _atom_site_occupancy
    Zr0     Zr   0.50002   0.75001   0.76154   1.000
    Zr1     Zr   0.50002   0.25000   0.73845   1.000
    Zr2     Zr   0.50002   0.25000   0.23845   1.000
    Zr3     Zr   0.50002   0.75001   0.26155   1.000
    N4      N    0.49771   0.50001   0.24995   1.000
    O5      O    0.49832   0.60117   0.25529   1.000
    O6      O    0.49831   0.39884   0.24464   1.000
    N7      N    0.00002   0.50001   0.49999   1.000
    O8      O    0.21970   0.62569   0.40618   1.000
    O9      O    0.21950   0.62500   0.60528   1.000
    O10     O    0.78054   0.37501   0.39471   1.000
    O11     O    0.78035   0.37432   0.59381   1.000
    N12     N    0.00002   0.00001   0.49999   1.000
    O13     O    0.21950   0.12499   0.39471   1.000
    O14     O    0.78035   0.87432   0.40617   1.000
    O15     O    0.78054   0.87502   0.60527   1.000
    O16     O    0.21969   0.12569   0.59381   1.000
    N17     N    0.00002   0.50001   0.99999   1.000
    O18     O    0.78035   0.62569   0.90617   1.000
    O19     O    0.78054   0.62500   0.10528   1.000
    O20     O    0.21950   0.37501   0.89471   1.000
    O21     O    0.21969   0.37432   0.09381   1.000
    N22     N    0.50233   0.00001   0.24998   1.000
    O23     O    0.50172   0.10117   0.24467   1.000
    O24     O    0.50172   0.89884   0.25531   1.000
    N25     N    0.00002   0.00001   0.99999   1.000
    O26     O    0.78054   0.12499   0.89471   1.000
    O27     O    0.21951   0.87502   0.10528   1.000
    O28     O    0.21970   0.87432   0.90617   1.000
    O29     O    0.78035   0.12569   0.09381   1.000
    N30     N    0.49771   0.00001   0.74999   1.000
    O31     O    0.49832   0.89884   0.75530   1.000
    O32     O    0.49832   0.10117   0.74468   1.000
    N33     N    0.50233   0.50001   0.74996   1.000
    O34     O    0.50172   0.60117   0.75529   1.000
    O35     O    0.50172   0.39884   0.74466   1.000
loop_
    _geom_bond_atom_site_label_1
    _geom_bond_atom_site_label_2
    _geom_bond_distance
    _geom_bond_site_symmetry_2
    _ccdc_geom_bond_type
    N4     O5        2.32358      .   S
    Zr3    O5        3.41769      .   S
    N4     O6        2.32357      .   S
    Zr2    O6        3.41767      .   S
    N7     O8        4.22630      .   S
    Zr3    O8        5.01245      .   S
    N7     O9        4.27308      .   S
    Zr0    O9        5.09941      .   S
    N7     O10       4.27306  1_455   S
    Zr2    O10       5.09939      .   S
    N7     O11       4.22631  1_455   S
    Zr1    O11       5.01251      .   S
    N12    O13       4.27298      .   S
    Zr2    O13       5.09932      .   S
    N12    O14       4.22619  1_445   S
    Zr3    O14       5.01235      .   S
    N12    O15       4.27301  1_445   S
    Zr0    O15       5.09935      .   S
    N12    O16       4.22624      .   S
    Zr1    O16       5.01244      .   S
    N17    O18       4.22620  1_455   S
    Zr0    O18       5.01238      .   S
    N17    O19       4.27303  1_456   S
    Zr3    O19       5.09934      .   S
    N17    O20       4.27300      .   S
    Zr1    O20       5.09927      .   S
    N17    O21       4.22623  1_556   S
    Zr2    O21       5.01240      .   S
    N22    O23       2.32348      .   S
    Zr2    O23       3.41759      .   S
    N22    O24       2.32349  1_545   S
    Zr3    O24       3.41762      .   S
    N25    O26       4.27296  1_455   S
    Zr1    O26       5.09926      .   S
    N25    O27       4.27299  1_546   S
    Zr3    O27       5.09932      .   S
    N25    O28       4.22619  1_545   S
    Zr0    O28       5.01238      .   S
    N25    O29       4.22620  1_456   S
    Zr2    O29       5.01239      .   S
    N30    O31       2.32349  1_545   S
    Zr0    O31       3.41759      .   S
    N30    O32       2.32349      .   S
    Zr1    O32       3.41761      .   S
    N33    O34       2.32358      .   S
    Zr0    O34       3.41769      .   S
    N33    O35       2.32356      .   S
    Zr1    O35       3.41768      .   S
