# CIF file generated by openbabel 2.4.90, see http://openbabel.sf.net
data_I
_chemical_name_common ''
_cell_length_a 13.926
_cell_length_b 15.054
_cell_length_c 15.041
_cell_angle_alpha 117.175
_cell_angle_beta 96.398
_cell_angle_gamma 96.64
_space_group_name_H-M_alt 'P 1'
_space_group_name_Hall 'P 1'
loop_
    _symmetry_equiv_pos_as_xyz
    x,y,z
loop_
    _atom_site_label
    _atom_site_type_symbol
    _atom_site_fract_x
    _atom_site_fract_y
    _atom_site_fract_z
    _atom_site_occupancy
    Zr0     Zr   0.14540   0.62739   0.33536   1.000
    Zr1     Zr   0.35465   0.66500   0.37232   1.000
    Zr2     Zr   0.85463   0.37262   0.66460   1.000
    Zr3     Zr   0.64538   0.33502   0.62767   1.000
    Zr4     Zr   0.23210   0.60876   0.16440   1.000
    Zr5     Zr   0.26390   0.67858   0.54224   1.000
    Zr6     Zr   0.26784   0.83508   0.38960   1.000
    Zr7     Zr   0.23607   0.45824   0.32285   1.000
    Zr8     Zr   0.76793   0.39125   0.83559   1.000
    Zr9     Zr   0.73613   0.32144   0.45775   1.000
    Zr10    Zr   0.73219   0.16493   0.61036   1.000
    Zr11    Zr   0.76395   0.54178   0.67715   1.000
    Zr12    Zr   0.34963   0.68692   0.52202   1.000
    Zr13    Zr   0.15029   0.58586   0.18758   1.000
    Zr14    Zr   0.18364   0.67301   0.48779   1.000
    Zr15    Zr   0.31692   0.63402   0.21899   1.000
    Zr16    Zr   0.15037   0.47832   0.31485   1.000
    Zr17    Zr   0.34968   0.81225   0.41239   1.000
    Zr18    Zr   0.31637   0.51294   0.32845   1.000
    Zr19    Zr   0.18307   0.78014   0.36430   1.000
    Zr20    Zr   0.65040   0.31310   0.47797   1.000
    Zr21    Zr   0.84974   0.41414   0.81241   1.000
    Zr22    Zr   0.81639   0.32703   0.51221   1.000
    Zr23    Zr   0.68310   0.36600   0.78100   1.000
    Zr24    Zr   0.84966   0.52171   0.68516   1.000
    Zr25    Zr   0.65034   0.18777   0.58760   1.000
    Zr26    Zr   0.68365   0.48708   0.67154   1.000
    Zr27    Zr   0.81696   0.21987   0.63569   1.000
    O28     O    0.19119   0.59731   0.17599   1.000
    O29     O    0.27451   0.62139   0.19170   1.000
    O30     O    0.14785   0.60663   0.26147   1.000
    O31     O    0.33578   0.64951   0.29566   1.000
    O32     O    0.19322   0.46828   0.31885   1.000
    O33     O    0.14789   0.55285   0.32511   1.000
    O34     O    0.27622   0.48559   0.32565   1.000
    O35     O    0.33551   0.58897   0.35039   1.000
    O36     O    0.16424   0.70377   0.34983   1.000
    O37     O    0.16452   0.65020   0.41158   1.000
    O38     O    0.22545   0.80761   0.37695   1.000
    O39     O    0.35216   0.73862   0.39236   1.000
    O40     O    0.35214   0.67596   0.44717   1.000
    O41     O    0.30876   0.82367   0.40099   1.000
    O42     O    0.69326   0.31727   0.46786   1.000
    O43     O    0.77626   0.32423   0.48498   1.000
    O44     O    0.64789   0.32406   0.55282   1.000
    O45     O    0.22377   0.67580   0.51502   1.000
    O46     O    0.83551   0.34983   0.58841   1.000
    O47     O    0.30676   0.68275   0.53213   1.000
    O48     O    0.69127   0.17635   0.59898   1.000
    O49     O    0.64786   0.26139   0.60764   1.000
    O50     O    0.77457   0.19240   0.62303   1.000
    O51     O    0.66452   0.41105   0.64960   1.000
    O52     O    0.66424   0.35051   0.70433   1.000
    O53     O    0.83579   0.29625   0.65014   1.000
    O54     O    0.85214   0.44717   0.67488   1.000
    O55     O    0.85218   0.39338   0.73850   1.000
    O56     O    0.72380   0.51443   0.67435   1.000
    O57     O    0.80680   0.53174   0.68115   1.000
    O58     O    0.72551   0.37863   0.80829   1.000
    O59     O    0.80883   0.40270   0.82400   1.000
    O60     O    0.25002   0.64620   0.35384   1.000
    O61     O    0.75000   0.35382   0.64613   1.000
    N62     N    0.24256   0.63930   0.85062   1.000
    O63     O    0.23566   0.62399   0.98275   1.000
    O64     O    0.25005   0.65701   0.71964   1.000
    N65     N    0.74976   0.64663   0.35320   1.000
    O66     O    0.58895   0.65566   0.36254   1.000
    O67     O    0.91085   0.63721   0.34439   1.000
    N68     N    0.75746   0.36072   0.14937   1.000
    O69     O    0.76436   0.37603   0.01724   1.000
    O70     O    0.74998   0.34302   0.28035   1.000
    N71     N    0.25735   0.14927   0.36048   1.000
    O72     O    0.26425   0.01696   0.37516   1.000
    O73     O    0.24988   0.28052   0.34348   1.000
    N74     N    0.24997   0.35339   0.64678   1.000
    O75     O    0.08903   0.36281   0.65559   1.000
    O76     O    0.41093   0.34436   0.63745   1.000
    N77     N    0.74267   0.85074   0.63951   1.000
    O78     O    0.73577   0.98306   0.62482   1.000
    O79     O    0.75014   0.71950   0.65651   1.000
loop_
    _geom_bond_atom_site_label_1
    _geom_bond_atom_site_label_2
    _geom_bond_distance
    _geom_bond_site_symmetry_2
    _ccdc_geom_bond_type
    Zr4    O28       0.64144      .   S
    Zr13   O28       0.64144      .   S
    Zr4    O29       0.63421      .   S
    Zr15   O29       0.63421      .   S
    Zr13   O30       1.01371      .   S
    Zr0    O30       1.01371      .   S
    Zr15   O31       1.06102      .   S
    Zr1    O31       1.06102      .   S
    Zr16   O32       0.63537      .   S
    Zr7    O32       0.63537      .   S
    Zr16   O33       1.06590      .   S
    Zr0    O33       1.06590      .   S
    Zr7    O34       0.63998      .   S
    Zr18   O34       0.63998      .   S
    Zr18   O35       1.02707      .   S
    Zr1    O35       1.02707      .   S
    Zr0    O36       1.06164      .   S
    Zr19   O36       1.06164      .   S
    Zr0    O37       1.02674      .   S
    Zr14   O37       1.02674      .   S
    Zr19   O38       0.63421      .   S
    Zr6    O38       0.63421      .   S
    Zr1    O39       1.01316      .   S
    Zr17   O39       1.01316      .   S
    Zr1    O40       1.06598      .   S
    Zr12   O40       1.06598      .   S
    Zr6    O41       0.64149      .   S
    Zr17   O41       0.64149      .   S
    Zr9    O42       0.63536      .   S
    Zr20   O42       0.63536      .   S
    Zr9    O43       0.64007      .   S
    Zr22   O43       0.64007      .   S
    Zr20   O44       1.06599      .   S
    Zr3    O44       1.06599      .   S
    Zr14   O45       0.64005      .   S
    Zr5    O45       0.64005      .   S
    Zr22   O46       1.02649      .   S
    Zr2    O46       1.02649      .   S
    Zr12   O47       0.63535      .   S
    Zr5    O47       0.63535      .   S
    Zr25   O48       0.64143      .   S
    Zr10   O48       0.64143      .   S
    Zr25   O49       1.01316      .   S
    Zr3    O49       1.01316      .   S
    Zr10   O50       0.63419      .   S
    Zr27   O50       0.63419      .   S
    Zr3    O51       1.02708      .   S
    Zr26   O51       1.02708      .   S
    Zr3    O52       1.06102      .   S
    Zr23   O52       1.06102      .   S
    Zr27   O53       1.06174      .   S
    Zr2    O53       1.06174      .   S
    Zr2    O54       1.06584      .   S
    Zr24   O54       1.06584      .   S
    Zr2    O55       1.01394      .   S
    Zr21   O55       1.01394      .   S
    Zr26   O56       0.63997      .   S
    Zr11   O56       0.63997      .   S
    Zr11   O57       0.63537      .   S
    Zr24   O57       0.63537      .   S
    Zr23   O58       0.63420      .   S
    Zr8    O58       0.63420      .   S
    Zr21   O59       0.64144      .   S
    Zr8    O59       0.64144      .   S
    Zr0    O60       1.42219      .   S
    Zr1    O60       1.42219      .   S
    Zr2    O61       1.42220      .   S
    Zr3    O61       1.42220      .   S
    N62    O63       2.11365      .   S
    Zr4    O63       2.84954  1_554   S
    N62    O64       2.11718      .   S
    Zr5    O64       2.85555      .   S
    N65    O66       2.27522      .   S
    Zr1    O66       3.29880      .   S
    N65    O67       2.27881      .   S
    Zr0    O67       3.30174  1_455   S
    N68    O69       2.11361      .   S
    Zr8    O69       2.84949  1_556   S
    N68    O70       2.11720      .   S
    Zr9    O70       2.85549      .   S
    N71    O72       2.11347      .   S
    Zr6    O72       2.84926  1_565   S
    N71    O73       2.11730      .   S
    Zr7    O73       2.85575      .   S
    N74    O75       2.27678      .   S
    Zr2    O75       3.29967  1_655   S
    N74    O76       2.27723      .   S
    Zr3    O76       3.30082      .   S
    N77    O78       2.11351      .   S
    Zr10   O78       2.84940  1_545   S
    N77    O79       2.11733      .   S
    Zr11   O79       2.85577      .   S
