# CIF file generated by openbabel 2.4.90, see http://openbabel.sf.net
data_I
_chemical_name_common ''
_cell_length_a 10.878
_cell_length_b 18.066
_cell_length_c 18.067
_cell_angle_alpha 90.186
_cell_angle_beta 90.212
_cell_angle_gamma 90.427
_space_group_name_H-M_alt 'P 1'
_space_group_name_Hall 'P 1'
loop_
    _symmetry_equiv_pos_as_xyz
    x,y,z
loop_
    _atom_site_label
    _atom_site_type_symbol
    _atom_site_fract_x
    _atom_site_fract_y
    _atom_site_fract_z
    _atom_site_occupancy
    Sr0     Sr   0.43647   0.17084   0.58873   1.000
    Sr1     Sr   0.68985   0.91028   0.66911   1.000
    Sr2     Sr   0.18600   0.09042   0.32664   1.000
    Sr3     Sr   0.81552   0.67239   0.90744   1.000
    Sr4     Sr   0.31418   0.32808   0.08921   1.000
    Sr5     Sr   0.06549   0.59072   0.16899   1.000
    Sr6     Sr   0.56356   0.40897   0.82851   1.000
    Cd7     Cd   0.00250   0.63332   0.36543   1.000
    Cd8     Cd   0.49865   0.36660   0.63227   1.000
    Cd9     Cd   0.75362   0.86901   0.86578   1.000
    Cd10    Cd   0.24727   0.13299   0.13089   1.000
    Sr11    Sr   0.93890   0.82940   0.40733   1.000
    C12     C    0.03103   0.67108   0.51649   1.000
    C13     C    0.91269   0.78941   0.75472   1.000
    C14     C    0.52879   0.33054   0.48165   1.000
    C15     C    0.41088   0.21185   0.24241   1.000
    C16     C    0.78327   0.00000   0.82769   1.000
    C17     C    0.66158   0.25744   0.71083   1.000
    C18     C    0.27915   0.98322   0.16681   1.000
    C19     C    0.16229   0.74492   0.28586   1.000
    C20     C    0.72444   0.83134   0.01642   1.000
    C21     C    0.84209   0.71180   0.25412   1.000
    C22     C    0.21685   0.16908   0.00000   1.000
    C23     C    0.33871   0.28599   0.74247   1.000
    C24     C    0.97119   0.48287   0.32742   1.000
    C25     C    0.08898   0.24372   0.21071   1.000
    C26     C    0.46942   0.51746   0.67030   1.000
    C27     C    0.59229   0.75733   0.78593   1.000
    O28     O    0.08334   0.61910   0.48126   1.000
    O29     O    0.96902   0.72163   0.48389   1.000
    O30     O    0.89176   0.77958   0.82453   1.000
    O31     O    0.87072   0.84380   0.71904   1.000
    O32     O    0.58335   0.38183   0.51744   1.000
    O33     O    0.46391   0.28048   0.51377   1.000
    O34     O    0.38949   0.22193   0.17261   1.000
    O35     O    0.36916   0.15688   0.27772   1.000
    O36     O    0.83828   0.98457   0.87870   1.000
    O37     O    0.71854   0.98698   0.77772   1.000
    O38     O    0.63982   0.32707   0.72145   1.000
    O39     O    0.61917   0.22179   0.65598   1.000
    O40     O    0.33329   0.01859   0.11560   1.000
    O41     O    0.21374   0.01571   0.21609   1.000
    O42     O    0.14111   0.67496   0.27578   1.000
    O43     O    0.12039   0.78056   0.34044   1.000
    O44     O    0.67232   0.88347   0.98143   1.000
    O45     O    0.78696   0.78109   0.98364   1.000
    O46     O    0.86337   0.72193   0.32404   1.000
    O47     O    0.88409   0.65733   0.21844   1.000
    O48     O    0.16149   0.11820   0.01578   1.000
    O49     O    0.28180   0.21918   0.01304   1.000
    O50     O    0.35990   0.27585   0.67268   1.000
    O51     O    0.38111   0.34082   0.77819   1.000
    O52     O    0.91668   0.51832   0.37839   1.000
    O53     O    0.03642   0.51538   0.27797   1.000
    O54     O    0.10986   0.17410   0.22141   1.000
    O55     O    0.13128   0.27864   0.15577   1.000
    O56     O    0.41642   0.48149   0.61851   1.000
    O57     O    0.53168   0.48562   0.72137   1.000
    O58     O    0.61392   0.82713   0.77565   1.000
    O59     O    0.63453   0.72220   0.84071   1.000
loop_
    _geom_bond_atom_site_label_1
    _geom_bond_atom_site_label_2
    _geom_bond_distance
    _geom_bond_site_symmetry_2
    _ccdc_geom_bond_type
    C22    O49       1.16687      .   S
    C22    O48       1.13299      .   S
    O49    Sr4       2.42004      .   S
    O48    Cd10      2.29016      .   S
    C20    O44       1.27162  1_554   S
    C20    O45       1.28304  1_554   S
    Sr4    O55       2.49005      .   S
    O40    Cd10      2.29133      .   S
    O40    C18       1.27027  1_545   S
    Cd10   O34       2.34306      .   S
    Cd10   O54       2.34243      .   S
    O55    C25       1.26408      .   S
    C18    O41       1.28505  1_565   S
    Sr5    O47       2.48632  1_455   S
    Sr5    O53       2.41764      .   S
    O34    C15       1.29527      .   S
    C25    O54       1.29474      .   S
    O41    Sr2       2.42793      .   S
    O47    C21       1.26380      .   S
    C15    O35       1.26425      .   S
    C21    O46       1.29558      .   S
    O42    C19       1.29512      .   S
    O42    Cd7       2.33917      .   S
    O35    Sr2       2.48535      .   S
    O53    C24       1.28393  1_455   S
    C19    O43       1.26420      .   S
    O46    Cd7       2.33401  1_655   S
    C24    O52       1.27102      .   S
    O43    Sr11      2.48461  1_455   S
    Cd7    O52       2.28447  1_455   S
    Cd7    O28       2.28289      .   S
    Sr11   O29       2.41562      .   S
    O28    C12       1.27179      .   S
    C14    O33       1.28442      .   S
    C14    O32       1.27050      .   S
    O29    C12       1.28292  1_655   S
    O33    Sr0       2.42026      .   S
    O32    Cd8       2.28983      .   S
    Sr0    O39       2.49415      .   S
    O56    Cd8       2.28015      .   S
    O56    C26       1.27150      .   S
    Cd8    O50       2.34046      .   S
    Cd8    O38       2.33873      .   S
    O39    C17       1.26399      .   S
    Sr1    O31       2.48122      .   S
    Sr1    O37       2.41630      .   S
    C26    O57       1.28276      .   S
    O50    C23       1.29537      .   S
    C17    O38       1.29557      .   S
    O31    C13       1.26422      .   S
    O57    Sr6       2.40923      .   S
    C23    O51       1.26391      .   S
    C13    O30       1.29510      .   S
    O58    C27       1.29509      .   S
    O58    Cd9       2.34301      .   S
    O37    C16       1.16516  1_565   S
    O51    Sr6       2.49494      .   S
    C27    O59       1.26427      .   S
    O30    Cd9       2.33665      .   S
    C16    O36       1.13375  1_545   S
    O59    Sr3       2.48090      .   S
    Cd9    O36       2.28628      .   S
    Cd9    O44       2.28698      .   S
    Sr3    O45       2.41723      .   S
    O30    Sr3       2.58560      .   S
    O34    Sr4       2.57914      .   S
    O38    Sr6       2.57500      .   S
    O42    Sr5       2.58186      .   S
    O46    Sr11      2.58012      .   S
    O50    Sr0       2.57047      .   S
    O54    Sr2       2.57135      .   S
    O58    Sr1       2.57988      .   S
