# CIF file generated by openbabel 2.4.90, see http://openbabel.sf.net
data_I
_chemical_name_common ''
_cell_length_a 10.878
_cell_length_b 18.066
_cell_length_c 18.067
_cell_angle_alpha 90.186
_cell_angle_beta 90.212
_cell_angle_gamma 90.427
_space_group_name_H-M_alt 'P 1'
_space_group_name_Hall 'P 1'
loop_
    _symmetry_equiv_pos_as_xyz
    x,y,z
loop_
    _atom_site_label
    _atom_site_type_symbol
    _atom_site_fract_x
    _atom_site_fract_y
    _atom_site_fract_z
    _atom_site_occupancy
    N0      N    0.05686   0.66547   0.68312   1.000
    N1      N    0.44589   0.68400   0.66240   1.000
    N2      N    0.30759   0.81684   0.16222   1.000
    N3      N    0.80810   0.18648   0.83442   1.000
    N4      N    0.19264   0.16183   0.81373   1.000
    N5      N    0.69706   0.83556   0.18294   1.000
    N6      N    0.55551   0.33663   0.31522   1.000
    N7      N    0.94394   0.31628   0.33369   1.000
    N8      N    0.45638   0.99532   0.64388   1.000
    N9      N    0.29735   0.49071   0.14501   1.000
    N10     N    0.20268   0.14678   0.48953   1.000
    N11     N    0.70724   0.85304   0.50675   1.000
    N12     N    0.54734   0.35297   0.00436   1.000
    N13     N    0.95306   0.99137   0.35002   1.000
    N14     N    0.04798   0.64713   0.00689   1.000
    N15     N    0.79752   0.50968   0.85196   1.000
    Zr16    Zr   0.00186   0.65822   0.34039   1.000
    O17     O    0.02395   0.66347   0.48040   1.000
    O18     O    0.87658   0.72314   0.27453   1.000
    O19     O    0.97856   0.51859   0.33526   1.000
    O20     O    0.12753   0.72451   0.27502   1.000
    Zr21    Zr   0.75325   0.84257   0.84057   1.000
    O22     O    0.73086   0.83770   0.98042   1.000
    O23     O    0.87810   0.77780   0.77480   1.000
    O24     O    0.77547   0.98068   0.83565   1.000
    O25     O    0.62693   0.77658   0.77519   1.000
    Zr26    Zr   0.49950   0.34219   0.65694   1.000
    O27     O    0.52193   0.33768   0.51739   1.000
    O28     O    0.48790   0.19594   0.64041   1.000
    O29     O    0.37338   0.27583   0.72243   1.000
    O30     O    0.62643   0.27717   0.72195   1.000
    O31     O    0.51296   0.35770   0.80345   1.000
    O32     O    0.47764   0.48176   0.66174   1.000
    Zr33    Zr   0.24889   0.15751   0.15698   1.000
    O34     O    0.37516   0.22313   0.22290   1.000
    O35     O    0.27235   0.01848   0.16105   1.000
    O36     O    0.22586   0.16162   0.01917   1.000
    O37     O    0.12355   0.22376   0.22173   1.000
    O38     O    0.64031   0.90773   0.74557   1.000
    O39     O    0.11439   0.58927   0.24577   1.000
    O40     O    0.88977   0.75250   0.40885   1.000
    O41     O    0.97581   0.80050   0.35414   1.000
    O42     O    0.02704   0.64384   0.19795   1.000
    O43     O    0.72816   0.85675   0.69801   1.000
    O44     O    0.86527   0.74821   0.90901   1.000
    O45     O    0.77761   0.70056   0.85491   1.000
    O46     O    0.27515   0.29969   0.14231   1.000
    O47     O    0.22377   0.14334   0.29882   1.000
    O48     O    0.36271   0.25194   0.09182   1.000
    O49     O    0.13635   0.08916   0.25040   1.000
    O50     O    0.38658   0.24767   0.58795   1.000
    O51     O    0.61300   0.41101   0.75144   1.000
loop_
    _geom_bond_atom_site_label_1
    _geom_bond_atom_site_label_2
    _geom_bond_distance
    _geom_bond_site_symmetry_2
    _ccdc_geom_bond_type
    Zr16   O17       2.54152      .   S
    N0     O17       3.67863      .   S
    Zr16   O18       2.16086  1_455   S
    N5     O18       3.27619      .   S
    Zr16   O19       2.53473  1_455   S
    N7     O19       3.67157      .   S
    Zr16   O20       2.16673      .   S
    N2     O20       3.28251      .   S
    Zr21   O22       2.54112      .   S
    N5     O22       3.67902  1_554   S
    Zr21   O23       2.15689      .   S
    N0     O23       3.27171  1_455   S
    Zr21   O24       2.50690      .   S
    N3     O24       3.73236  1_545   S
    Zr21   O25       2.15841      .   S
    N1     O25       3.27539      .   S
    Zr26   O27       2.53507      .   S
    N6     O27       3.67218      .   S
    Zr26   O28       2.66004      .   S
    N8     O28       3.63879  1_565   S
    Zr26   O29       2.17164      .   S
    N4     O29       3.28840      .   S
    Zr26   O30       2.16484      .   S
    N3     O30       3.28017      .   S
    Zr26   O31       2.66427      .   S
    N12    O31       3.64905  1_554   S
    Zr26   O32       2.53580      .   S
    N1     O32       3.67234      .   S
    Zr33   O34       2.15997      .   S
    N6     O34       3.27546      .   S
    Zr33   O35       2.52774      .   S
    N2     O35       3.66583  1_565   S
    Zr33   O36       2.50288      .   S
    N4     O36       3.72783  1_556   S
    Zr33   O37       2.16503      .   S
    N7     O37       3.28013  1_655   S
    N8     O38       3.14982      .   S
    Zr21   O38       2.42073      .   S
    Zr16   O39       2.44884      .   S
    N9     O39       3.24108      .   S
    Zr16   O40       2.43842  1_455   S
    N11    O40       3.22937      .   S
    Zr16   O41       2.59919  1_455   S
    N13    O41       3.46006      .   S
    Zr16   O42       2.60142      .   S
    N14    O42       3.46088      .   S
    Zr21   O43       2.60265      .   S
    N11    O43       3.46259      .   S
    Zr21   O44       2.44005      .   S
    N14    O44       3.23434  1_454   S
    Zr21   O45       2.59495      .   S
    N15    O45       3.45698      .   S
    N9     O46       3.45780      .   S
    Zr33   O46       2.59684      .   S
    Zr33   O47       2.59152      .   S
    N10    O47       3.45431      .   S
    Zr33   O48       2.41282      .   S
    N12    O48       3.13842      .   S
    Zr33   O49       2.42451      .   S
    N13    O49       3.21424  1_665   S
    N10    O50       3.22252      .   S
    Zr26   O50       2.43344      .   S
    Zr26   O51       2.43584      .   S
    N15    O51       3.22533      .   S
