# CIF file generated by openbabel 2.4.90, see http://openbabel.sf.net
data_I
_chemical_name_common ''
_cell_length_a 10.878
_cell_length_b 18.066
_cell_length_c 18.067
_cell_angle_alpha 90.186
_cell_angle_beta 90.212
_cell_angle_gamma 90.427
_space_group_name_H-M_alt 'P 1'
_space_group_name_Hall 'P 1'
loop_
    _symmetry_equiv_pos_as_xyz
    x,y,z
loop_
    _atom_site_label
    _atom_site_type_symbol
    _atom_site_fract_x
    _atom_site_fract_y
    _atom_site_fract_z
    _atom_site_occupancy
    N0      N    0.05686   0.66547   0.68312   1.000
    N1      N    0.44589   0.68400   0.66240   1.000
    N2      N    0.30759   0.81684   0.16222   1.000
    N3      N    0.80810   0.18648   0.83442   1.000
    N4      N    0.19264   0.16183   0.81373   1.000
    N5      N    0.69706   0.83556   0.18294   1.000
    N6      N    0.55551   0.33663   0.31522   1.000
    N7      N    0.94394   0.31628   0.33369   1.000
    N8      N    0.45638   0.99532   0.64388   1.000
    N9      N    0.29735   0.49071   0.14501   1.000
    N10     N    0.20268   0.14678   0.48953   1.000
    N11     N    0.70724   0.85304   0.50675   1.000
    N12     N    0.54734   0.35297   0.00436   1.000
    N13     N    0.95306   0.99137   0.35002   1.000
    N14     N    0.04798   0.64713   0.00689   1.000
    N15     N    0.79752   0.50968   0.85196   1.000
    Zr16    Zr   0.00186   0.65822   0.34039   1.000
    O17     O    0.02395   0.66347   0.48040   1.000
    O18     O    0.87658   0.72314   0.27453   1.000
    O19     O    0.97856   0.51859   0.33526   1.000
    O20     O    0.88348   0.74914   0.40309   1.000
    O21     O    0.89605   0.75585   0.41461   1.000
    O22     O    0.98826   0.80119   0.35551   1.000
    O23     O    0.96336   0.79980   0.35277   1.000
    O24     O    0.12753   0.72451   0.27502   1.000
    O25     O    0.12063   0.59508   0.24909   1.000
    O26     O    0.10815   0.58345   0.24245   1.000
    O27     O    0.03951   0.64520   0.19855   1.000
    O28     O    0.01458   0.64248   0.19735   1.000
    Zr29    Zr   0.75325   0.84257   0.84057   1.000
    O30     O    0.73086   0.83770   0.98042   1.000
    O31     O    0.63417   0.90190   0.74886   1.000
    O32     O    0.64645   0.91356   0.74227   1.000
    O33     O    0.71571   0.85535   0.69859   1.000
    O34     O    0.74062   0.85814   0.69743   1.000
    O35     O    0.87152   0.75155   0.90327   1.000
    O36     O    0.85902   0.74486   0.91474   1.000
    O37     O    0.76522   0.69992   0.85643   1.000
    O38     O    0.79000   0.70119   0.85338   1.000
    O39     O    0.87810   0.77780   0.77480   1.000
    O40     O    0.77547   0.98068   0.83565   1.000
    O41     O    0.62693   0.77658   0.77519   1.000
    Zr42    Zr   0.49950   0.34219   0.65694   1.000
    O43     O    0.52193   0.33768   0.51739   1.000
    O44     O    0.48790   0.19594   0.64041   1.000
    O45     O    0.39281   0.24436   0.58220   1.000
    O46     O    0.38035   0.25098   0.59371   1.000
    O47     O    0.37338   0.27583   0.72243   1.000
    O48     O    0.62643   0.27717   0.72195   1.000
    O49     O    0.51296   0.35770   0.80345   1.000
    O50     O    0.61915   0.40523   0.74814   1.000
    O51     O    0.60685   0.41680   0.75475   1.000
    O52     O    0.47764   0.48176   0.66174   1.000
    Zr53    Zr   0.24889   0.15751   0.15698   1.000
    O54     O    0.37516   0.22313   0.22290   1.000
    O55     O    0.27235   0.01848   0.16105   1.000
    O56     O    0.28754   0.29910   0.14384   1.000
    O57     O    0.26275   0.30027   0.14078   1.000
    O58     O    0.35648   0.25525   0.08606   1.000
    O59     O    0.36894   0.24864   0.09759   1.000
    O60     O    0.22586   0.16162   0.01917   1.000
    O61     O    0.23620   0.14197   0.29946   1.000
    O62     O    0.21135   0.14471   0.29819   1.000
    O63     O    0.14266   0.08346   0.25372   1.000
    O64     O    0.13004   0.09486   0.24707   1.000
    O65     O    0.12355   0.22376   0.22173   1.000
loop_
    _geom_bond_atom_site_label_1
    _geom_bond_atom_site_label_2
    _geom_bond_distance
    _geom_bond_site_symmetry_2
    _ccdc_geom_bond_type
    Zr16   O17       2.54152      .   S
    N0     O17       3.67863      .   S
    Zr16   O18       2.16086  1_455   S
    N5     O18       3.27619      .   S
    Zr16   O19       2.53473  1_455   S
    N7     O19       3.67157      .   S
    Zr16   O20       2.38104  1_455   S
    N11    O20       3.28081      .   S
    Zr16   O21       2.50209  1_455   S
    N11    O21       3.18309      .   S
    Zr16   O22       2.60184  1_455   S
    N13    O22       3.46151      .   S
    Zr16   O23       2.60387  1_455   S
    N13    O23       3.46412      .   S
    Zr16   O24       2.16673      .   S
    N2     O24       3.28251      .   S
    Zr16   O25       2.39097      .   S
    N9     O25       3.29319      .   S
    Zr16   O26       2.51296      .   S
    N9     O26       3.19410      .   S
    Zr16   O27       2.60685      .   S
    N14    O27       3.46453      .   S
    Zr16   O28       2.60331      .   S
    N14    O28       3.46274      .   S
    Zr29   O30       2.54112      .   S
    N5     O30       3.67902  1_554   S
    Zr29   O31       2.36390      .   S
    N8     O31       3.19825      .   S
    Zr29   O32       2.48394      .   S
    N8     O32       3.10677      .   S
    Zr29   O33       2.60709      .   S
    N11    O33       3.46709      .   S
    Zr29   O34       2.60552      .   S
    N11    O34       3.46359      .   S
    Zr29   O35       2.38235      .   S
    N14    O35       3.28606  1_454   S
    Zr29   O36       2.50403      .   S
    N14    O36       3.18776  1_454   S
    Zr29   O37       2.59815      .   S
    N15    O37       3.45804      .   S
    Zr29   O38       2.59910      .   S
    N15    O38       3.46144      .   S
    Zr29   O39       2.15689      .   S
    N0     O39       3.27171  1_455   S
    Zr29   O40       2.50690      .   S
    N3     O40       3.73236  1_545   S
    Zr29   O41       2.15841      .   S
    N1     O41       3.27539      .   S
    Zr42   O43       2.53507      .   S
    N6     O43       3.67218      .   S
    Zr42   O44       2.66004      .   S
    N8     O44       3.63879  1_565   S
    Zr42   O45       2.49721      .   S
    N10    O45       3.17645      .   S
    Zr42   O46       2.37598      .   S
    N10    O46       3.27377      .   S
    Zr42   O47       2.17164      .   S
    N4     O47       3.28840      .   S
    Zr42   O48       2.16484      .   S
    N3     O48       3.28017      .   S
    Zr42   O49       2.66427      .   S
    N12    O49       3.64905  1_554   S
    Zr42   O50       2.37813      .   S
    N15    O50       3.27717      .   S
    Zr42   O51       2.49985      .   S
    N15    O51       3.17866      .   S
    Zr42   O52       2.53580      .   S
    N1     O52       3.67234      .   S
    Zr53   O54       2.15997      .   S
    N6     O54       3.27546      .   S
    Zr53   O55       2.52774      .   S
    N2     O55       3.66583  1_565   S
    Zr53   O56       2.60108      .   S
    N9     O56       3.46231      .   S
    Zr53   O57       2.59993      .   S
    N9     O57       3.45879      .   S
    Zr53   O58       2.47479      .   S
    N12    O58       3.09694      .   S
    Zr53   O59       2.35731      .   S
    N12    O59       3.18534      .   S
    Zr53   O60       2.50288      .   S
    N4     O60       3.72783  1_556   S
    Zr53   O61       2.59444      .   S
    N10    O61       3.45546      .   S
    Zr53   O62       2.59595      .   S
    N10    O62       3.45867      .   S
    Zr53   O63       2.48736      .   S
    N13    O63       3.16913  1_665   S
    Zr53   O64       2.36805      .   S
    N13    O64       3.26455  1_665   S
    Zr53   O65       2.16503      .   S
    N7     O65       3.28013  1_655   S
