# CIF file generated by openbabel 2.4.90, see http://openbabel.sf.net
data_I
_chemical_name_common ''
_cell_length_a 13.444
_cell_length_b 14.201
_cell_length_c 19.045
_cell_angle_alpha 90.774
_cell_angle_beta 108.294
_cell_angle_gamma 93.384
_space_group_name_H-M_alt 'P 1'
_space_group_name_Hall 'P 1'
loop_
    _symmetry_equiv_pos_as_xyz
    x,y,z
loop_
    _atom_site_label
    _atom_site_type_symbol
    _atom_site_fract_x
    _atom_site_fract_y
    _atom_site_fract_z
    _atom_site_occupancy
    N0      N    0.68279   0.71102   0.94151   1.000
    N1      N    0.23338   0.31818   0.54018   1.000
    N2      N    0.76659   0.68179   0.45975   1.000
    N3      N    0.49995   0.49996   0.49998   1.000
    N4      N    0.82572   0.17431   0.68917   1.000
    N5      N    0.31718   0.28896   0.05844   1.000
    N6      N    0.17426   0.82563   0.31080   1.000
    N7      N    0.49998   0.50000   0.99998   1.000
    Zr8     Zr   0.12559   0.46974   0.83363   1.000
    O9      O    0.14981   0.44762   0.74203   1.000
    O10     O    0.00624   0.55024   0.72250   1.000
    O11     O    0.99068   0.55035   0.86445   1.000
    O12     O    0.27515   0.49711   0.89986   1.000
    O13     O    0.00472   0.34987   0.77653   1.000
    Zr14    Zr   0.87437   0.53024   0.16632   1.000
    O15     O    0.99525   0.65010   0.22343   1.000
    O16     O    0.72481   0.50288   0.10010   1.000
    O17     O    0.99373   0.44973   0.27744   1.000
    O18     O    0.85016   0.55235   0.25791   1.000
    O19     O    0.00928   0.44963   0.13550   1.000
    Zr20    Zr   0.49998   0.99997   0.49997   1.000
    O21     O    0.36820   0.93789   0.42172   1.000
    O22     O    0.41656   0.06711   0.53348   1.000
    O23     O    0.54088   0.89252   0.64547   1.000
    O24     O    0.50544   0.21381   0.49252   1.000
    O25     O    0.49450   0.78612   0.50743   1.000
    O26     O    0.58341   0.93284   0.46646   1.000
    O27     O    0.45908   0.10743   0.35448   1.000
    O28     O    0.63178   0.06205   0.57824   1.000
loop_
    _geom_bond_atom_site_label_1
    _geom_bond_atom_site_label_2
    _geom_bond_distance
    _geom_bond_site_symmetry_2
    _ccdc_geom_bond_type
    Zr8    O9        1.89770      .   S
    N1     O9        4.71014      .   S
    Zr8    O10       2.55166      .   S
    N2     O10       5.45451  1_655   S
    Zr8    O11       2.41671  1_455   S
    N0     O11       5.41581      .   S
    Zr8    O12       2.02173      .   S
    N7     O12       3.02304      .   S
    Zr8    O13       2.28803      .   S
    N4     O13       3.38249  1_655   S
    Zr14   O15       2.28796      .   S
    N6     O15       3.38239  1_455   S
    Zr14   O16       2.02166      .   S
    N7     O16       3.02299  1_556   S
    Zr14   O17       2.55156      .   S
    N1     O17       5.45446  1_455   S
    Zr14   O18       1.89761      .   S
    N2     O18       4.70982      .   S
    Zr14   O19       2.41673  1_655   S
    N5     O19       5.41582      .   S
    Zr20   O21       2.06399      .   S
    N6     O21       3.12443      .   S
    Zr20   O22       1.77004  1_565   S
    N1     O22       4.47380      .   S
    Zr20   O23       3.09278      .   S
    N0     O23       6.02438      .   S
    Zr20   O24       3.03959  1_565   S
    N3     O24       4.07000      .   S
    Zr20   O25       3.03974      .   S
    N3     O25       4.07012      .   S
    Zr20   O26       1.77007      .   S
    N2     O26       4.47362      .   S
    Zr20   O27       3.09294  1_565   S
    N5     O27       6.02443      .   S
    Zr20   O28       2.06408  1_565   S
    N4     O28       3.12452      .   S
