# CIF file generated by openbabel 2.4.90, see http://openbabel.sf.net
data_I
_chemical_name_common ''
_cell_length_a 13.444
_cell_length_b 14.201
_cell_length_c 19.045
_cell_angle_alpha 90.774
_cell_angle_beta 108.294
_cell_angle_gamma 93.384
_space_group_name_H-M_alt 'P 1'
_space_group_name_Hall 'P 1'
loop_
    _symmetry_equiv_pos_as_xyz
    x,y,z
loop_
    _atom_site_label
    _atom_site_type_symbol
    _atom_site_fract_x
    _atom_site_fract_y
    _atom_site_fract_z
    _atom_site_occupancy
    Zr0     Zr   0.93087   0.46943   0.19495   1.000
    Zr1     Zr   0.47685   0.88782   0.58160   1.000
    Zr2     Zr   0.06908   0.53052   0.80500   1.000
    Zr3     Zr   0.52311   0.11212   0.41830   1.000
    Zr4     Zr   0.46965   0.69481   0.54015   1.000
    Zr5     Zr   0.70282   0.43367   0.09159   1.000
    Zr6     Zr   0.01876   0.67441   0.22940   1.000
    Zr7     Zr   0.34386   0.95877   0.39988   1.000
    Zr8     Zr   0.53029   0.30512   0.45980   1.000
    Zr9     Zr   0.29714   0.56633   0.90837   1.000
    Zr10    Zr   0.98121   0.32554   0.77056   1.000
    Zr11    Zr   0.65612   0.04118   0.60007   1.000
    Zr12    Zr   0.77899   0.49733   0.10647   1.000
    Zr13    Zr   0.70469   0.35026   0.11110   1.000
    Zr14    Zr   0.03348   0.59502   0.26086   1.000
    Zr15    Zr   0.95098   0.69156   0.16990   1.000
    Zr16    Zr   0.54801   0.75509   0.55046   1.000
    Zr17    Zr   0.38206   0.71180   0.54600   1.000
    Zr18    Zr   0.34995   0.04337   0.37959   1.000
    Zr19    Zr   0.40776   0.92174   0.45378   1.000
    Zr20    Zr   0.22097   0.50267   0.89349   1.000
    Zr21    Zr   0.29528   0.64974   0.88880   1.000
    Zr22    Zr   0.96649   0.40492   0.73908   1.000
    Zr23    Zr   0.04897   0.30844   0.83008   1.000
    Zr24    Zr   0.45198   0.24479   0.44953   1.000
    Zr25    Zr   0.61788   0.28819   0.45394   1.000
    Zr26    Zr   0.65001   0.95656   0.62034   1.000
    Zr27    Zr   0.59224   0.07825   0.54619   1.000
    O28     O    0.74091   0.46550   0.09903   1.000
    O29     O    0.70376   0.39197   0.10134   1.000
    O30     O    0.85493   0.48338   0.15071   1.000
    O31     O    0.98487   0.68299   0.19965   1.000
    O32     O    0.98217   0.53222   0.22790   1.000
    O33     O    0.02612   0.63471   0.24513   1.000
    O34     O    0.34691   0.00107   0.38973   1.000
    O35     O    0.43653   0.07775   0.39894   1.000
    O36     O    0.37581   0.94026   0.42683   1.000
    O37     O    0.48754   0.17846   0.43391   1.000
    O38     O    0.55767   0.09518   0.48224   1.000
    O39     O    0.49114   0.27496   0.45466   1.000
    O40     O    0.44231   0.90478   0.51769   1.000
    O41     O    0.57409   0.29665   0.45687   1.000
    O42     O    0.42586   0.70331   0.54307   1.000
    O43     O    0.50883   0.72495   0.54530   1.000
    O44     O    0.62418   0.05971   0.57313   1.000
    O45     O    0.51243   0.82145   0.56603   1.000
    O46     O    0.56343   0.92219   0.60097   1.000
    O47     O    0.65306   0.99887   0.61020   1.000
    O48     O    0.97385   0.36523   0.75482   1.000
    O49     O    0.01778   0.46772   0.77204   1.000
    O50     O    0.01509   0.31699   0.80032   1.000
    O51     O    0.14503   0.51659   0.84924   1.000
    O52     O    0.29621   0.60803   0.89858   1.000
    O53     O    0.25905   0.53450   0.90093   1.000
    N54     N    0.68279   0.71102   0.94151   1.000
    O55     O    0.58178   0.78508   0.79096   1.000
    O56     O    0.85576   0.63096   0.89528   1.000
    N57     N    0.23338   0.31818   0.54018   1.000
    O58     O    0.11308   0.36921   0.38855   1.000
    O59     O    0.17402   0.42550   0.65044   1.000
    O60     O    0.33314   0.13424   0.56698   1.000
    N61     N    0.76659   0.68179   0.45975   1.000
    O62     O    0.82594   0.57446   0.34950   1.000
    O63     O    0.88688   0.63075   0.61137   1.000
    O64     O    0.66683   0.86572   0.43294   1.000
    N65     N    0.49995   0.49996   0.49998   1.000
    O66     O    0.48902   0.57227   0.51488   1.000
    O67     O    0.51089   0.42765   0.48508   1.000
    N68     N    0.82572   0.17431   0.68917   1.000
    O69     O    0.76357   0.12414   0.65650   1.000
    O70     O    0.88385   0.22999   0.71943   1.000
    N71     N    0.31718   0.28896   0.05844   1.000
    O72     O    0.41818   0.21489   0.20898   1.000
    O73     O    0.14420   0.36902   0.10467   1.000
    N74     N    0.17426   0.82563   0.31080   1.000
    O75     O    0.11613   0.76995   0.28054   1.000
    O76     O    0.23641   0.87580   0.34346   1.000
    N77     N    0.49998   0.50000   0.99998   1.000
    O78     O    0.42471   0.52447   0.96609   1.000
    O79     O    0.57525   0.47552   0.03387   1.000
loop_
    _geom_bond_atom_site_label_1
    _geom_bond_atom_site_label_2
    _geom_bond_distance
    _geom_bond_site_symmetry_2
    _ccdc_geom_bond_type
    Zr5    O28       0.64185      .   S
    Zr12   O28       0.64185      .   S
    Zr5    O29       0.62275      .   S
    Zr13   O29       0.62275      .   S
    Zr12   O30       1.13129      .   S
    Zr0    O30       1.13129      .   S
    Zr15   O31       0.62431      .   S
    Zr6    O31       0.62431  1_455   S
    Zr0    O32       1.14251      .   S
    Zr14   O32       1.14251  1_455   S
    Zr6    O33       0.64024      .   S
    Zr14   O33       0.64024      .   S
    Zr18   O34       0.63645      .   S
    Zr7    O34       0.63645  1_565   S
    Zr18   O35       1.17802      .   S
    Zr3    O35       1.17802      .   S
    Zr7    O36       0.62898      .   S
    Zr19   O36       0.62898      .   S
    Zr3    O37       1.15732      .   S
    Zr24   O37       1.15732      .   S
    Zr3    O38       1.19278      .   S
    Zr27   O38       1.19278      .   S
    Zr24   O39       0.64039      .   S
    Zr8    O39       0.64039      .   S
    Zr19   O40       1.19226      .   S
    Zr1    O40       1.19226      .   S
    Zr25   O41       0.62690      .   S
    Zr8    O41       0.62690      .   S
    Zr4    O42       0.62698      .   S
    Zr17   O42       0.62698      .   S
    Zr4    O43       0.64035      .   S
    Zr16   O43       0.64035      .   S
    Zr27   O44       0.62895      .   S
    Zr11   O44       0.62895      .   S
    Zr16   O45       1.15743      .   S
    Zr1    O45       1.15743      .   S
    Zr1    O46       1.17802      .   S
    Zr26   O46       1.17802      .   S
    Zr11   O47       0.63648  1_545   S
    Zr26   O47       0.63648      .   S
    Zr22   O48       0.64020      .   S
    Zr10   O48       0.64020      .   S
    Zr22   O49       1.14257  1_655   S
    Zr2    O49       1.14257      .   S
    Zr10   O50       0.62433  1_655   S
    Zr23   O50       0.62433      .   S
    Zr2    O51       1.13131      .   S
    Zr20   O51       1.13131      .   S
    Zr21   O52       0.62293      .   S
    Zr9    O52       0.62293      .   S
    Zr20   O53       0.64185      .   S
    Zr9    O53       0.64185      .   S
    N54    O55       2.99620      .   S
    Zr1    O55       4.10923      .   S
    N54    O56       3.00763      .   S
    Zr2    O56       4.08994  1_455   S
    N57    O58       2.95681      .   S
    Zr0    O58       4.06252  1_655   S
    N57    O59       2.91188      .   S
    Zr2    O59       3.95174      .   S
    N57    O60       2.98360      .   S
    Zr1    O60       4.06744  1_565   S
    N61    O62       2.91170      .   S
    Zr0    O62       3.95159      .   S
    N61    O63       2.95670      .   S
    Zr2    O63       4.06292  1_455   S
    N61    O64       2.98348      .   S
    Zr3    O64       4.06711  1_545   S
    N65    O66       1.09216      .   S
    Zr4    O66       1.85397      .   S
    N65    O67       1.09215      .   S
    Zr8    O67       1.85403      .   S
    N68    O69       1.08814      .   S
    Zr11   O69       1.84936      .   S
    N68    O70       1.09558      .   S
    Zr10   O70       1.85937      .   S
    N71    O72       2.99608      .   S
    Zr3    O72       4.10878      .   S
    N71    O73       3.00762      .   S
    Zr0    O73       4.08994  1_655   S
    N74    O75       1.09555      .   S
    Zr6    O75       1.85934      .   S
    N74    O76       1.08814      .   S
    Zr7    O76       1.84935      .   S
    N77    O78       1.09494      .   S
    Zr9    O78       1.85951      .   S
    N77    O79       1.09493  1_556   S
    Zr5    O79       1.85946      .   S
