# CIF file generated by openbabel 2.4.90, see http://openbabel.sf.net
data_I
_chemical_name_common ''
_cell_length_a 18.626
_cell_length_b 14.536
_cell_length_c 27.649
_cell_angle_alpha 89.935
_cell_angle_beta 89.867
_cell_angle_gamma 92.543
_space_group_name_H-M_alt 'P 1'
_space_group_name_Hall 'P 1'
loop_
    _symmetry_equiv_pos_as_xyz
    x,y,z
loop_
    _atom_site_label
    _atom_site_type_symbol
    _atom_site_fract_x
    _atom_site_fract_y
    _atom_site_fract_z
    _atom_site_occupancy
    H0      H    0.17361   0.35578   0.37292   1.000
    H1      H    0.67360   0.35578   0.37292   1.000
    H2      H    0.12456   0.43384   0.40855   1.000
    H3      H    0.62455   0.43384   0.40855   1.000
    H4      H    0.30485   0.39017   0.35640   1.000
    H5      H    0.80484   0.39016   0.35642   1.000
    H6      H    0.41788   0.46351   0.38758   1.000
    H7      H    0.91787   0.46350   0.38758   1.000
    H8      H    0.29591   0.64355   0.47632   1.000
    H9      H    0.79590   0.64357   0.47631   1.000
    H10     H    0.18334   0.56594   0.44730   1.000
    H11     H    0.68333   0.56595   0.44736   1.000
    H12     H    0.99225   0.59028   0.38518   1.000
    H13     H    0.49224   0.59030   0.38518   1.000
    H14     H    0.10403   0.66640   0.41553   1.000
    H15     H    0.60402   0.66641   0.41550   1.000
    H16     H    0.00327   0.70827   0.55348   1.000
    H17     H    0.50326   0.70825   0.55348   1.000
    H18     H    0.39087   0.63427   0.52301   1.000
    H19     H    0.89086   0.63428   0.52301   1.000
    H20     H    0.12231   0.76408   0.54247   1.000
    H21     H    0.62230   0.76408   0.54247   1.000
    H22     H    0.17215   0.68206   0.51015   1.000
    H23     H    0.67214   0.68206   0.51015   1.000
    H24     H    0.32741   0.14450   0.87367   1.000
    H25     H    0.82740   0.14450   0.87367   1.000
    H26     H    0.37591   0.06615   0.90945   1.000
    H27     H    0.87590   0.06616   0.90945   1.000
    H28     H    0.19617   0.11155   0.85759   1.000
    H29     H    0.69616   0.11155   0.85759   1.000
    H30     H    0.08267   0.03821   0.88851   1.000
    H31     H    0.58266   0.03821   0.88851   1.000
    H32     H    0.20343   0.85599   0.97662   1.000
    H33     H    0.70342   0.85600   0.97662   1.000
    H34     H    0.31643   0.93375   0.94802   1.000
    H35     H    0.81642   0.93375   0.94803   1.000
    H36     H    0.50799   0.91162   0.88558   1.000
    H37     H    0.00000   0.91162   0.88558   1.000
    H38     H    0.39591   0.83515   0.91565   1.000
    H39     H    0.89590   0.83516   0.91560   1.000
    H40     H    0.49565   0.79053   0.05343   1.000
    H41     H    0.99564   0.79052   0.05343   1.000
    H42     H    0.10836   0.86456   0.02318   1.000
    H43     H    0.60835   0.86457   0.02318   1.000
    H44     H    0.37660   0.73582   0.04244   1.000
    H45     H    0.87659   0.73583   0.04244   1.000
    H46     H    0.32693   0.81768   0.00990   1.000
    H47     H    0.82693   0.81768   0.00991   1.000
    H48     H    0.32637   0.64420   0.62706   1.000
    H49     H    0.82637   0.64420   0.62706   1.000
    H50     H    0.37543   0.56613   0.59143   1.000
    H51     H    0.87543   0.56613   0.59143   1.000
    H52     H    0.19514   0.60980   0.64356   1.000
    H53     H    0.69513   0.60981   0.64356   1.000
    C54     C    0.50112   0.68182   0.51662   1.000
    C55     C    0.43764   0.63976   0.49932   1.000
    C56     C    0.93763   0.63977   0.49932   1.000
    C57     C    0.13101   0.73409   0.50646   1.000
    H58     H    0.08211   0.53646   0.61240   1.000
    H59     H    0.58211   0.53646   0.61240   1.000
    H60     H    0.20408   0.35640   0.52367   1.000
    H61     H    0.70407   0.35640   0.52367   1.000
    H62     H    0.31666   0.43403   0.55262   1.000
    H63     H    0.81665   0.43402   0.55262   1.000
    H64     H    0.50775   0.40967   0.61480   1.000
    H65     H    0.00000   0.40967   0.61481   1.000
    H66     H    0.39597   0.33356   0.58440   1.000
    H67     H    0.89596   0.33355   0.58440   1.000
    H68     H    0.49672   0.29171   0.44650   1.000
    H69     H    0.99671   0.29171   0.44650   1.000
    H70     H    0.10913   0.36569   0.47690   1.000
    H71     H    0.60912   0.36569   0.47697   1.000
    H72     H    0.37769   0.23588   0.45751   1.000
    H73     H    0.87768   0.23588   0.45751   1.000
    H74     H    0.32785   0.31791   0.48983   1.000
    H75     H    0.82784   0.31791   0.48980   1.000
    C76     C    0.43728   0.80936   0.98716   1.000
    C77     C    0.93727   0.80936   0.98716   1.000
    C78     C    0.49807   0.81763   0.01668   1.000
    C79     C    0.99806   0.81762   0.01668   1.000
    C80     C    0.06172   0.85981   0.99951   1.000
    H81     H    0.17258   0.85547   0.12632   1.000
    H82     H    0.67258   0.85547   0.12632   1.000
    H83     H    0.12408   0.93381   0.09054   1.000
    H84     H    0.62408   0.93381   0.09054   1.000
    H85     H    0.30383   0.88843   0.14240   1.000
    H86     H    0.80382   0.88843   0.14241   1.000
    H87     H    0.41732   0.96176   0.11148   1.000
    H88     H    0.91731   0.96177   0.11148   1.000
    H89     H    0.29656   0.14397   0.02330   1.000
    H90     H    0.79655   0.14397   0.02337   1.000
    H91     H    0.18356   0.06622   0.05196   1.000
    H92     H    0.68355   0.06622   0.05197   1.000
    H93     H    0.99201   0.08835   0.11441   1.000
    H94     H    0.49200   0.08835   0.11440   1.000
    H95     H    0.10408   0.16481   0.08434   1.000
    H96     H    0.60407   0.16482   0.08434   1.000
    H97     H    0.00434   0.20946   0.94656   1.000
    H98     H    0.50433   0.20945   0.94650   1.000
    H99     H    0.39164   0.13542   0.97681   1.000
    H100    H    0.89163   0.13543   0.97681   1.000
    H101    H    0.12339   0.26415   0.95755   1.000
    H102    H    0.62339   0.26415   0.95755   1.000
    H103    H    0.17306   0.18230   0.99008   1.000
    H104    H    0.67305   0.18230   0.99007   1.000
    C105    C    0.16735   0.42889   0.38126   1.000
    C106    C    0.66734   0.42889   0.38126   1.000
    C107    C    0.23608   0.47384   0.39929   1.000
    C108    C    0.73607   0.47384   0.39929   1.000
    C109    C    0.30289   0.44577   0.38282   1.000
    C110    C    0.80288   0.44576   0.38283   1.000
    C111    C    0.36651   0.48767   0.40004   1.000
    C112    C    0.86650   0.48766   0.40004   1.000
    C113    C    0.36557   0.55953   0.43407   1.000
    C114    C    0.86557   0.55953   0.43407   1.000
    C115    C    0.29836   0.58708   0.45055   1.000
    C116    C    0.79835   0.58709   0.45054   1.000
    C117    C    0.23490   0.54443   0.43370   1.000
    C118    C    0.73489   0.54444   0.43370   1.000
    C119    C    0.43312   0.60447   0.45211   1.000
    C120    C    0.93311   0.60447   0.45210   1.000
    C121    C    0.99456   0.61450   0.42248   1.000
    C122    C    0.49455   0.61451   0.42248   1.000
    C123    C    0.05782   0.65725   0.43962   1.000
    C124    C    0.55781   0.65726   0.43960   1.000
    C125    C    0.06212   0.69085   0.48712   1.000
    C126    C    0.56211   0.69085   0.48712   1.000
    C127    C    0.00112   0.68182   0.51662   1.000
    O128    O    0.14450   0.47676   0.33776   1.000
    C129    C    0.63100   0.73409   0.50646   1.000
    C130    C    0.33330   0.07135   0.88218   1.000
    C131    C    0.83330   0.07135   0.88218   1.000
    C132    C    0.26431   0.02681   0.90022   1.000
    C133    C    0.76430   0.02682   0.90020   1.000
    C134    C    0.19774   0.05553   0.88384   1.000
    C135    C    0.69773   0.05554   0.88384   1.000
    C136    C    0.13388   0.01361   0.90088   1.000
    C137    C    0.63387   0.01361   0.90088   1.000
    C138    C    0.13437   0.94108   0.93463   1.000
    C139    C    0.63436   0.94108   0.93463   1.000
    C140    C    0.20135   0.91294   0.95105   1.000
    C141    C    0.70134   0.91294   0.95100   1.000
    C142    C    0.26503   0.95566   0.93442   1.000
    C143    C    0.76502   0.95567   0.93442   1.000
    C144    C    0.06662   0.89598   0.95244   1.000
    C145    C    0.56661   0.89598   0.95245   1.000
    C146    C    0.50538   0.88672   0.92279   1.000
    C147    C    0.00000   0.88672   0.92279   1.000
    C148    C    0.44195   0.84376   0.93977   1.000
    C149    C    0.94194   0.84376   0.93977   1.000
    C150    C    0.56171   0.85982   0.99951   1.000
    C151    C    0.36825   0.76585   0.00638   1.000
    C152    C    0.86825   0.76585   0.00638   1.000
    C153    C    0.33264   0.57108   0.61872   1.000
    C154    C    0.83263   0.57108   0.61872   1.000
    C155    C    0.26391   0.52613   0.60069   1.000
    C156    C    0.76390   0.52613   0.60069   1.000
    C157    C    0.19709   0.55420   0.61716   1.000
    C158    C    0.69709   0.55421   0.61710   1.000
    C159    C    0.13348   0.51230   0.59994   1.000
    C160    C    0.63348   0.51230   0.59994   1.000
    C161    C    0.13442   0.44043   0.56592   1.000
    C162    C    0.63441   0.44043   0.56590   1.000
    C163    C    0.20164   0.41288   0.54944   1.000
    C164    C    0.70163   0.41288   0.54944   1.000
    C165    C    0.26509   0.45554   0.56629   1.000
    C166    C    0.76508   0.45553   0.56629   1.000
    C167    C    0.06688   0.39549   0.54787   1.000
    C168    C    0.56687   0.39549   0.54787   1.000
    C169    C    0.50544   0.38546   0.57750   1.000
    C170    C    0.00000   0.38546   0.57750   1.000
    C171    C    0.44217   0.34271   0.56037   1.000
    C172    C    0.94216   0.34271   0.56037   1.000
    C173    C    0.43787   0.30912   0.51286   1.000
    C174    C    0.93787   0.30912   0.51286   1.000
    C175    C    0.49887   0.31815   0.48336   1.000
    C176    C    0.99886   0.31815   0.48336   1.000
    C177    C    0.06236   0.36020   0.50066   1.000
    C178    C    0.56235   0.36020   0.50066   1.000
    C179    C    0.36898   0.26588   0.49352   1.000
    C180    C    0.86897   0.26588   0.49352   1.000
    C181    C    0.16669   0.92862   0.11781   1.000
    C182    C    0.66668   0.92862   0.11780   1.000
    C183    C    0.23569   0.97316   0.09970   1.000
    C184    C    0.73568   0.97316   0.09977   1.000
    C185    C    0.30226   0.94444   0.11615   1.000
    C186    C    0.80225   0.94444   0.11610   1.000
    C187    C    0.36611   0.98636   0.09911   1.000
    C188    C    0.86611   0.98637   0.09911   1.000
    C189    C    0.36562   0.05889   0.06536   1.000
    C190    C    0.86562   0.05890   0.06536   1.000
    C191    C    0.29864   0.08703   0.04893   1.000
    C192    C    0.79863   0.08703   0.04894   1.000
    C193    C    0.23496   0.04430   0.06557   1.000
    C194    C    0.73495   0.04431   0.06557   1.000
    C195    C    0.43337   0.10399   0.04754   1.000
    C196    C    0.93336   0.10400   0.04754   1.000
    C197    C    0.99462   0.11325   0.07720   1.000
    C198    C    0.49461   0.11325   0.07700   1.000
    C199    C    0.05805   0.15621   0.06022   1.000
    C200    C    0.55804   0.15622   0.06022   1.000
    C201    C    0.06271   0.19062   0.01283   1.000
    C202    C    0.56271   0.19062   0.01283   1.000
    C203    C    0.00192   0.18236   0.98331   1.000
    C204    C    0.50191   0.18235   0.98331   1.000
    C205    C    0.43827   0.14016   0.00048   1.000
    C206    C    0.93826   0.14017   0.00048   1.000
    C207    C    0.13174   0.23412   0.99361   1.000
    C208    C    0.63173   0.23412   0.99361   1.000
    O209    O    0.64449   0.47676   0.33776   1.000
    O210    O    0.15653   0.80464   0.47300   1.000
    O211    O    0.65652   0.80464   0.47300   1.000
    O212    O    0.35610   0.02311   0.83878   1.000
    O213    O    0.85610   0.02310   0.83879   1.000
    O214    O    0.34334   0.69524   0.97302   1.000
    O215    O    0.84333   0.69524   0.97302   1.000
    O216    O    0.35549   0.52322   0.66223   1.000
    O217    O    0.85548   0.52322   0.66223   1.000
    O218    O    0.34346   0.19533   0.52690   1.000
    O219    O    0.84345   0.19533   0.52690   1.000
    O220    O    0.14389   0.97687   0.16120   1.000
    O221    O    0.64388   0.97687   0.16121   1.000
    O222    O    0.15665   0.30475   0.02697   1.000
    O223    O    0.65665   0.30474   0.02697   1.000
loop_
    _geom_bond_atom_site_label_1
    _geom_bond_atom_site_label_2
    _geom_bond_distance
    _geom_bond_site_symmetry_2
    _ccdc_geom_bond_type
    C206   C196      1.40406      .   S
    C206   H100      1.08856  1_554   S
    C206   C203      1.39271  1_654   S
    C205   C195      1.40406      .   S
    C205   H99       1.08856  1_554   S
    C205   C204      1.39245  1_554   S
    C152   H47       1.10480      .   S
    C152   H45       1.10204      .   S
    C152   O215      1.44284  1_554   S
    C152   C77       1.50303  1_554   S
    C151   H46       1.10478      .   S
    C151   H44       1.10205      .   S
    C151   O214      1.44282  1_554   S
    C151   C76       1.50304  1_554   S
    C202   C200      1.40307      .   S
    C202   C204      1.39831  1_554   S
    C202   C208      1.50303  1_554   S
    C201   C199      1.40308      .   S
    C201   C203      1.39832  1_554   S
    C201   C207      1.50303  1_554   S
    C78    H40       1.08948      .   S
    C78    C76       1.39828  1_554   S
    C78    C150      1.39247  1_554   S
    C79    H41       1.08949      .   S
    C79    C77       1.39830  1_554   S
    C79    C80       1.39271  1_654   S
    H43    C150      1.08853  1_554   S
    H42    C80       1.08854  1_554   S
    H89    C191      1.09105      .   S
    H90    C192      1.08998      .   S
    O222   C207      1.44287  1_554   S
    O223   C208      1.44286  1_554   S
    C196   C190      1.47914      .   S
    C196   C197      1.40829      .   S
    C195   C189      1.47914      .   S
    C195   C198      1.40483      .   S
    C191   C189      1.40633      .   S
    C191   C193      1.39126      .   S
    C192   C190      1.40626      .   S
    C192   C194      1.39116      .   S
    H91    C193      1.09001      .   S
    H92    C194      1.08992      .   S
    C199   C197      1.39196  1_455   S
    C199   H95       1.09036      .   S
    C200   C198      1.39012      .   S
    C200   H96       1.09035      .   S
    C189   C187      1.40749  1_545   S
    C190   C188      1.40750  1_545   S
    C194   C184      1.40105  1_545   S
    C193   C183      1.39972  1_545   S
    C198   H94       1.09548      .   S
    C197   H93       1.09052      .   S
    H83    C181      1.10088      .   S
    H84    C182      1.10070      .   S
    C187   H87       1.08905      .   S
    C187   C185      1.39299      .   S
    C188   H88       1.08905      .   S
    C188   C186      1.39253      .   S
    C183   C185      1.40238      .   S
    C183   C181      1.49795      .   S
    C184   C186      1.40131      .   S
    C184   C182      1.49723      .   S
    C186   H86       1.09259      .   S
    C185   H85       1.09148      .   S
    C182   H82       1.09910      .   S
    C182   O221      1.46246      .   S
    C181   H81       1.09902      .   S
    C181   O220      1.46203      .   S
    O209   C106      1.46243      .   S
    O128   C105      1.46244      .   S
    H4     C109      1.09171      .   S
    H5     C110      1.09158      .   S
    H0     C105      1.09897      .   S
    H1     C106      1.09896      .   S
    C105   C107      1.49792      .   S
    C105   H2        1.10103      .   S
    C106   C108      1.49792      .   S
    C106   H3        1.10103      .   S
    C109   C107      1.40191      .   S
    C109   C111      1.39316      .   S
    C110   C108      1.40185      .   S
    C110   C112      1.39306      .   S
    H13    C122      1.09041      .   S
    H12    C121      1.09043      .   S
    H7     C112      1.08907      .   S
    H6     C111      1.08905      .   S
    C108   C118      1.40101      .   S
    C107   C117      1.40093      .   S
    C112   C114      1.40737      .   S
    C111   C113      1.40731      .   S
    H15    C124      1.09055      .   S
    H14    C123      1.09041      .   S
    C121   C123      1.39201  1_655   S
    C121   C120      1.40800      .   S
    C122   C124      1.39183      .   S
    C122   C119      1.40791      .   S
    C117   H10       1.08948      .   S
    C117   C115      1.39157      .   S
    C118   H11       1.09007      .   S
    C118   C116      1.39149      .   S
    C114   C116      1.40628      .   S
    C114   C120      1.47941      .   S
    C113   C115      1.40635      .   S
    C113   C119      1.47949      .   S
    C124   C126      1.40340      .   S
    C123   C125      1.40292      .   S
    H68    C175      1.08979      .   S
    H69    C176      1.08978      .   S
    C116   H9        1.09004      .   S
    C115   H8        1.08998      .   S
    C120   C56       1.40465      .   S
    C119   C55       1.40436      .   S
    H73    C180      1.10196      .   S
    H72    C179      1.10196      .   S
    O211   C129      1.44438      .   S
    O210   C57       1.44437      .   S
    H70    C177      1.08990      .   S
    H71    C178      1.08875      .   S
    C176   C177      1.39296  1_655   S
    C176   C174      1.39835      .   S
    C175   C178      1.39271      .   S
    C175   C173      1.39835      .   S
    C126   C129      1.50332      .   S
    C126   C54       1.39834      .   S
    C125   C57       1.50332      .   S
    C125   C127      1.39836      .   S
    H75    C180      1.10502      .   S
    H74    C179      1.10493      .   S
    C179   C173      1.50331      .   S
    C179   O218      1.44290      .   S
    C180   C174      1.50331      .   S
    C180   O219      1.44289      .   S
    C56    C127      1.39296  1_655   S
    C56    H19       1.08875      .   S
    C55    C54       1.39272      .   S
    C55    H18       1.08873      .   S
    C177   C167      1.40436      .   S
    C178   C168      1.40436      .   S
    C57    H22       1.10494      .   S
    C57    H20       1.10192      .   S
    C129   H23       1.10494      .   S
    C129   H21       1.10192      .   S
    C173   C171      1.40314      .   S
    C174   C172      1.40314      .   S
    C127   H16       1.08981      .   S
    C54    H17       1.08978      .   S
    H61    C164      1.09005      .   S
    H60    C163      1.09003      .   S
    C168   C162      1.47940      .   S
    C168   C169      1.40792      .   S
    C167   C161      1.47960      .   S
    C167   C170      1.49097      .   S
    C163   C161      1.40637      .   S
    C163   C165      1.39158      .   S
    C164   C162      1.40620      .   S
    C164   C166      1.39159      .   S
    H62    C165      1.09017      .   S
    H63    C166      1.09016      .   S
    C172   C170      1.30943  1_655   S
    C172   H67       1.08939      .   S
    C171   C169      1.39191      .   S
    C171   H66       1.08939      .   S
    C162   C160      1.40758      .   S
    C161   C159      1.40719      .   S
    C166   C156      1.40084      .   S
    C165   C155      1.40081      .   S
    C170   H65       1.09034      .   S
    C169   H64       1.09041      .   S
    H50    C153      1.10103      .   S
    H51    C154      1.10105      .   S
    C159   H58       1.08907      .   S
    C159   C157      1.39315      .   S
    C160   H59       1.08908      .   S
    C160   C158      1.39259      .   S
    C156   C158      1.40141      .   S
    C156   C154      1.49793      .   S
    C155   C157      1.40195      .   S
    C155   C153      1.49793      .   S
    C158   H53       1.09253      .   S
    C157   H52       1.09139      .   S
    C153   H48       1.09899      .   S
    C153   O216      1.46261      .   S
    C154   H49       1.09898      .   S
    C154   O217      1.46261      .   S
    O212   C130      1.46220      .   S
    O213   C131      1.46199      .   S
    H29    C135      1.09150      .   S
    H28    C134      1.09151      .   S
    H25    C131      1.09905      .   S
    H24    C130      1.09905      .   S
    C131   C133      1.49714      .   S
    C131   H27       1.10089      .   S
    C130   C132      1.49733      .   S
    C130   H26       1.10091      .   S
    C134   C132      1.40175      .   S
    C134   C136      1.39300      .   S
    C135   C133      1.40156      .   S
    C135   C137      1.39300      .   S
    H36    C146      1.09051      .   S
    H37    C147      1.09025      .   S
    H30    C136      1.08904      .   S
    H31    C137      1.08906      .   S
    C133   C143      1.40143  1_545   S
    C132   C142      1.40108  1_545   S
    C136   C138      1.40753  1_545   S
    C137   C139      1.40751  1_545   S
    H39    C149      1.09120      .   S
    H38    C148      1.09034      .   S
    C146   C148      1.39196      .   S
    C146   C145      1.40801      .   S
    C147   C149      1.31038  1_455   S
    C147   C144      1.48999      .   S
    C142   H34       1.08993      .   S
    C142   C140      1.39117      .   S
    C143   H35       1.09000      .   S
    C143   C141      1.39071      .   S
    C139   C141      1.40579      .   S
    C139   C145      1.47917      .   S
    C138   C140      1.40624      .   S
    C138   C144      1.47906      .   S
    C149   C77       1.40306      .   S
    C148   C76       1.40305      .   S
    H98    C204      1.09104      .   S
    H97    C203      1.08950      .   S
    C141   H33       1.09088      .   S
    C140   H32       1.09001      .   S
    C144   C80       1.40430      .   S
    C145   C150      1.40403      .   S
    H101   C207      1.10201      .   S
    H102   C208      1.10202      .   S
    H104   C208      1.10482      .   S
    H103   C207      1.10480      .   S
