# CIF file generated by openbabel 2.4.90, see http://openbabel.sf.net
data_I
_chemical_name_common ''
_cell_length_a 18.626
_cell_length_b 14.536
_cell_length_c 27.649
_cell_angle_alpha 89.935
_cell_angle_beta 89.867
_cell_angle_gamma 92.543
_space_group_name_H-M_alt 'P 1'
_space_group_name_Hall 'P 1'
loop_
    _symmetry_equiv_pos_as_xyz
    x,y,z
loop_
    _atom_site_label
    _atom_site_type_symbol
    _atom_site_fract_x
    _atom_site_fract_y
    _atom_site_fract_z
    _atom_site_occupancy
    Ts0     Ts   0.39911   0.58320   0.44268   1.000
    Ts1     Ts   0.10031   0.91714   0.94313   1.000
    Ts2     Ts   0.89920   0.08283   0.05685   1.000
    Ts3     Ts   0.39920   0.08283   0.05684   1.000
    Ts4     Ts   0.60088   0.41677   0.55729   1.000
    Ts5     Ts   0.89910   0.58320   0.44268   1.000
    Ts6     Ts   0.10041   0.41677   0.55729   1.000
    Ts7     Ts   0.60079   0.91714   0.94313   1.000
