# CIF file generated by openbabel 2.4.90, see http://openbabel.sf.net
data_I
_chemical_name_common ''
_cell_length_a 18.626
_cell_length_b 14.536
_cell_length_c 27.649
_cell_angle_alpha 89.935
_cell_angle_beta 89.867
_cell_angle_gamma 92.543
_space_group_name_H-M_alt 'P 1'
_space_group_name_Hall 'P 1'
loop_
    _symmetry_equiv_pos_as_xyz
    x,y,z
loop_
    _atom_site_label
    _atom_site_type_symbol
    _atom_site_fract_x
    _atom_site_fract_y
    _atom_site_fract_z
    _atom_site_occupancy
    H0      H    0.05532   0.33059   0.36578   1.000
    H1      H    0.55531   0.33059   0.36578   1.000
    H2      H    0.08968   0.55561   0.26493   1.000
    H3      H    0.58967   0.55561   0.26493   1.000
    H4      H    0.39077   0.39156   0.26270   1.000
    H5      H    0.89076   0.39156   0.26270   1.000
    H6      H    0.21119   0.92472   0.41579   1.000
    H7      H    0.71118   0.92472   0.41579   1.000
    H8      H    0.41331   0.96586   0.49074   1.000
    H9      H    0.91331   0.96587   0.49074   1.000
    H10     H    0.25093   0.77788   0.54856   1.000
    H11     H    0.75092   0.77788   0.54856   1.000
    H12     H    0.44546   0.16902   0.86634   1.000
    H13     H    0.94546   0.16902   0.86634   1.000
    H14     H    0.41067   0.94439   0.76564   1.000
    H15     H    0.91066   0.94438   0.76565   1.000
    H16     H    0.10956   0.10856   0.76243   1.000
    H17     H    0.60956   0.10856   0.76243   1.000
    H18     H    0.28947   0.57578   0.91534   1.000
    H19     H    0.78947   0.57578   0.91534   1.000
    H20     H    0.08603   0.53449   0.98929   1.000
    H21     H    0.58602   0.53449   0.98929   1.000
    H22     H    0.24756   0.72189   0.04797   1.000
    H23     H    0.74755   0.72189   0.04797   1.000
    H24     H    0.44467   0.66939   0.63420   1.000
    H25     H    0.94466   0.66939   0.63420   1.000
    H26     H    0.41031   0.44438   0.73505   1.000
    H27     H    0.91030   0.44438   0.73505   1.000
    H28     H    0.10922   0.60842   0.73720   1.000
    H29     H    0.60921   0.60842   0.73720   1.000
    H30     H    0.28880   0.07525   0.58419   1.000
    H31     H    0.78879   0.07525   0.58419   1.000
    H32     H    0.08668   0.03410   0.50924   1.000
    H33     H    0.58667   0.03411   0.50920   1.000
    H34     H    0.24906   0.22210   0.45142   1.000
    H35     H    0.74906   0.22210   0.45142   1.000
    H36     H    0.05453   0.83096   0.13365   1.000
    H37     H    0.55452   0.83096   0.13365   1.000
    H38     H    0.08932   0.05560   0.23434   1.000
    H39     H    0.58931   0.05559   0.23430   1.000
    H40     H    0.39043   0.89143   0.23756   1.000
    H41     H    0.89042   0.89143   0.23756   1.000
    H42     H    0.21051   0.42420   0.08465   1.000
    H43     H    0.71050   0.42420   0.08465   1.000
    H44     H    0.41395   0.46551   0.01069   1.000
    H45     H    0.91394   0.46551   0.01069   1.000
    H46     H    0.25243   0.27809   0.95202   1.000
    H47     H    0.75242   0.27809   0.95202   1.000
    C48     C    0.46906   0.35414   0.31611   1.000
    C49     C    0.96905   0.35414   0.31611   1.000
    C50     C    0.03658   0.37481   0.33712   1.000
    C51     C    0.53658   0.37481   0.33712   1.000
    C52     C    0.07931   0.44930   0.31944   1.000
    C53     C    0.57931   0.44930   0.31944   1.000
    C54     C    0.05522   0.49998   0.27976   1.000
    C55     C    0.55521   0.49998   0.27976   1.000
    C56     C    0.48746   0.47970   0.25983   1.000
    C57     C    0.98745   0.47970   0.25983   1.000
    C58     C    0.44336   0.40740   0.27831   1.000
    C59     C    0.94335   0.40740   0.27831   1.000
    C60     C    0.22341   0.84461   0.48072   1.000
    C61     C    0.72340   0.84461   0.48072   1.000
    C62     C    0.24673   0.90915   0.44560   1.000
    C63     C    0.74672   0.90915   0.44560   1.000
    C64     C    0.31542   0.95124   0.44891   1.000
    C65     C    0.81541   0.95124   0.44891   1.000
    C66     C    0.36025   0.93220   0.48803   1.000
    C67     C    0.86024   0.93220   0.48803   1.000
    C68     C    0.33583   0.87077   0.52381   1.000
    C69     C    0.83582   0.87077   0.52381   1.000
    C70     C    0.26776   0.82574   0.52002   1.000
    C71     C    0.76775   0.82574   0.52002   1.000
    C72     C    0.03143   0.14573   0.81620   1.000
    C73     C    0.53142   0.14573   0.81620   1.000
    C74     C    0.46402   0.12493   0.83756   1.000
    C75     C    0.96401   0.12493   0.83756   1.000
    C76     C    0.42122   0.05053   0.82010   1.000
    C77     C    0.92121   0.05053   0.82010   1.000
    C78     C    0.44518   0.99997   0.78030   1.000
    C79     C    0.94517   0.99997   0.78030   1.000
    C80     C    0.01286   0.02035   0.76003   1.000
    C81     C    0.51286   0.02035   0.76003   1.000
    C82     C    0.05702   0.09262   0.77829   1.000
    C83     C    0.55702   0.09262   0.77829   1.000
    C84     C    0.27627   0.65541   0.98028   1.000
    C85     C    0.77626   0.65541   0.98020   1.000
    C86     C    0.25346   0.59123   0.94501   1.000
    C87     C    0.75345   0.59123   0.94501   1.000
    C88     C    0.18469   0.54921   0.94800   1.000
    C89     C    0.68468   0.54921   0.94800   1.000
    C90     C    0.13915   0.56814   0.98686   1.000
    C91     C    0.63914   0.56814   0.98680   1.000
    C92     C    0.16297   0.62935   0.02275   1.000
    C93     C    0.66296   0.62934   0.02275   1.000
    C94     C    0.23118   0.67422   0.01934   1.000
    C95     C    0.73118   0.67422   0.01934   1.000
    C96     C    0.03093   0.64584   0.68387   1.000
    C97     C    0.53092   0.64584   0.68387   1.000
    C98     C    0.46341   0.62516   0.66286   1.000
    C99     C    0.96340   0.62516   0.66286   1.000
    C100    C    0.42067   0.55068   0.68054   1.000
    C101    C    0.92067   0.55068   0.68054   1.000
    C102    C    0.44477   0.50000   0.72022   1.000
    C103    C    0.94477   0.50000   0.72022   1.000
    C104    C    0.01253   0.52029   0.74015   1.000
    C105    C    0.51252   0.52029   0.74015   1.000
    C106    C    0.05663   0.59258   0.72167   1.000
    C107    C    0.55662   0.59258   0.72167   1.000
    C108    C    0.27658   0.15536   0.51926   1.000
    C109    C    0.77657   0.15536   0.51926   1.000
    C110    C    0.25326   0.09082   0.55437   1.000
    C111    C    0.75325   0.09082   0.55437   1.000
    C112    C    0.18457   0.04873   0.55107   1.000
    C113    C    0.68456   0.04873   0.55107   1.000
    C114    C    0.13974   0.06777   0.51195   1.000
    C115    C    0.63973   0.06777   0.51195   1.000
    C116    C    0.16416   0.12920   0.47617   1.000
    C117    C    0.66415   0.12920   0.47617   1.000
    C118    C    0.23223   0.17423   0.47996   1.000
    C119    C    0.73222   0.17423   0.47996   1.000
    C120    C    0.46856   0.85425   0.18379   1.000
    C121    C    0.96855   0.85425   0.18379   1.000
    C122    C    0.03597   0.87505   0.16243   1.000
    C123    C    0.53597   0.87505   0.16243   1.000
    C124    C    0.07877   0.94945   0.17989   1.000
    C125    C    0.57877   0.94945   0.17989   1.000
    C126    C    0.05481   0.00001   0.21968   1.000
    C127    C    0.55480   0.00001   0.21969   1.000
    C128    C    0.48712   0.97963   0.23996   1.000
    C129    C    0.98712   0.97963   0.23996   1.000
    C130    C    0.44296   0.90736   0.22170   1.000
    C131    C    0.94296   0.90736   0.22170   1.000
    C132    C    0.22372   0.34458   0.01970   1.000
    C133    C    0.72371   0.34458   0.01970   1.000
    C134    C    0.24652   0.40876   0.05497   1.000
    C135    C    0.74652   0.40876   0.05497   1.000
    C136    C    0.31529   0.45078   0.05198   1.000
    C137    C    0.81528   0.45078   0.05198   1.000
    C138    C    0.36083   0.43186   0.01312   1.000
    C139    C    0.86082   0.43186   0.01312   1.000
    C140    C    0.33701   0.37065   0.97724   1.000
    C141    C    0.83700   0.37065   0.97724   1.000
    C142    C    0.26880   0.32577   0.98065   1.000
    C143    C    0.76880   0.32577   0.98065   1.000
loop_
    _geom_bond_atom_site_label_1
    _geom_bond_atom_site_label_2
    _geom_bond_distance
    _geom_bond_site_symmetry_2
    _ccdc_geom_bond_type
    H45    C139      1.08604      .   S
    H44    C138      1.08606      .   S
    C139   C137      1.40237      .   S
    C139   C141      1.39339  1_554   S
    C138   C136      1.40236      .   S
    C138   C140      1.39338  1_554   S
    C95    C93       1.40510      .   S
    C95    H23       1.08788      .   S
    C95    C85       1.40282  1_554   S
    C94    C92       1.40510      .   S
    C94    H22       1.08787      .   S
    C94    C84       1.40111  1_554   S
    C133   C135      1.40381      .   S
    C133   C143      1.40088  1_554   S
    C132   C134      1.40382      .   S
    C132   C142      1.40088  1_554   S
    C93    C91       1.39476  1_554   S
    C92    C90       1.39358  1_554   S
    C136   C134      1.39662      .   S
    C137   C135      1.39661      .   S
    C135   H43       1.08856      .   S
    C134   H42       1.08856      .   S
    H37    C123      1.08763      .   S
    H36    C122      1.08764      .   S
    C123   C125      1.40165      .   S
    C123   C120      1.40672      .   S
    C122   C124      1.40165      .   S
    C122   C121      1.40697  1_455   S
    C124   C126      1.40652  1_565   S
    C125   C127      1.40674  1_565   S
    C120   C130      1.39791      .   S
    C121   C131      1.39793      .   S
    C126   H38       1.08906      .   S
    C126   C129      1.39830  1_445   S
    C127   H39       1.08855      .   S
    C127   C128      1.39793  1_545   S
    C131   H41       1.08684      .   S
    C131   C129      1.40055      .   S
    C130   H40       1.08685      .   S
    C130   C128      1.40055      .   S
    C56    C58       1.40017      .   S
    C56    C55       1.39763      .   S
    C57    C59       1.40018      .   S
    C57    C54       1.39789  1_655   S
    H4     C58       1.08676      .   S
    H5     C59       1.08675      .   S
    H3     C55       1.08904      .   S
    H2     C54       1.08905      .   S
    C59    C49       1.39791      .   S
    C58    C48       1.39792      .   S
    C54    C52       1.40622      .   S
    C55    C53       1.40622      .   S
    C49    C50       1.40719  1_655   S
    C48    C51       1.40693      .   S
    C53    C51       1.40191      .   S
    C52    C50       1.40191      .   S
    C50    H0        1.08764      .   S
    C51    H1        1.08764      .   S
    H6     C62       1.08817      .   S
    H7     C63       1.08815      .   S
    C62    C64       1.39678      .   S
    C62    C60       1.40410      .   S
    C63    C65       1.39680      .   S
    C63    C61       1.40409      .   S
    C65    C67       1.40272      .   S
    C64    C66       1.40273      .   S
    H35    C119      1.08782      .   S
    H34    C118      1.08783      .   S
    C116   C118      1.40497      .   S
    C116   C114      1.39384      .   S
    C117   C119      1.40499      .   S
    C117   C115      1.39383      .   S
    C119   C109      1.40071      .   S
    C118   C108      1.40071      .   S
    C60    C70       1.40072      .   S
    C61    C71       1.40072      .   S
    C66    H8        1.08606      .   S
    C66    C68       1.39384      .   S
    C67    H9        1.08607      .   S
    C67    C69       1.39383      .   S
    H33    C115      1.08614      .   S
    H32    C114      1.08607      .   S
    C114   C112      1.40270      .   S
    C115   C113      1.40272      .   S
    C108   C110      1.40390      .   S
    C109   C111      1.40390      .   S
    C71    C69       1.40499      .   S
    C71    H11       1.08782      .   S
    C70    C68       1.40499      .   S
    C70    H10       1.08782      .   S
    C113   C111      1.39677      .   S
    C112   C110      1.39677      .   S
    C110   H30       1.08836      .   S
    C111   H31       1.08836      .   S
    H25    C99       1.08765      .   S
    H24    C98       1.08765      .   S
    C99    C101      1.40190      .   S
    C99    C96       1.40716  1_655   S
    C98    C100      1.40190      .   S
    C98    C97       1.40693      .   S
    C101   C103      1.40622      .   S
    C100   C102      1.40623      .   S
    C97    C107      1.39794      .   S
    C96    C106      1.39795      .   S
    C103   H27       1.08904      .   S
    C103   C104      1.39787  1_655   S
    C102   H26       1.08904      .   S
    C102   C105      1.39762      .   S
    C107   H29       1.08586      .   S
    C107   C105      1.40015      .   S
    C106   H28       1.08585      .   S
    C106   C104      1.40016      .   S
    C80    C82       1.40055      .   S
    C80    C79       1.39817  1_445   S
    C81    C83       1.40055      .   S
    C81    C78       1.39791  1_545   S
    H16    C82       1.08684      .   S
    H17    C83       1.08683      .   S
    H14    C78       1.08906      .   S
    H15    C79       1.08897      .   S
    C83    C73       1.39792      .   S
    C82    C72       1.39790      .   S
    C79    C77       1.40672  1_565   S
    C78    C76       1.40673  1_565   S
    C73    C74       1.40668      .   S
    C72    C75       1.40694  1_455   S
    C77    C75       1.40166      .   S
    C76    C74       1.40166      .   S
    C75    H13       1.08763      .   S
    C74    H12       1.08763      .   S
    H19    C87       1.08838      .   S
    H18    C86       1.08837      .   S
    C87    C89       1.39661      .   S
    C87    C85       1.40227      .   S
    C86    C88       1.39659      .   S
    C86    C84       1.40381      .   S
    C88    C90       1.40243      .   S
    C89    C91       1.40115      .   S
    H47    C143      1.08790      .   S
    H46    C142      1.08790      .   S
    C140   C142      1.40511      .   S
    C141   C143      1.40510      .   S
    C91    H21       1.08615      .   S
    C90    H20       1.08604      .   S
