# CIF file generated by openbabel 2.4.90, see http://openbabel.sf.net
data_I
_chemical_name_common ''
_cell_length_a 18.626
_cell_length_b 14.536
_cell_length_c 27.649
_cell_angle_alpha 89.935
_cell_angle_beta 89.867
_cell_angle_gamma 92.543
_space_group_name_H-M_alt 'P 1'
_space_group_name_Hall 'P 1'
loop_
    _symmetry_equiv_pos_as_xyz
    x,y,z
loop_
    _atom_site_label
    _atom_site_type_symbol
    _atom_site_fract_x
    _atom_site_fract_y
    _atom_site_fract_z
    _atom_site_occupancy
    Zn0     Zn   0.84940   0.12076   0.33368   1.000
    Zn1     Zn   0.49675   0.10572   0.37892   1.000
    Zn2     Zn   0.99674   0.10572   0.37892   1.000
    Zn3     Zn   0.15067   0.37931   0.83348   1.000
    Zn4     Zn   0.65067   0.37931   0.83348   1.000
    Zn5     Zn   0.00333   0.39409   0.87905   1.000
    Zn6     Zn   0.50332   0.39409   0.87905   1.000
    Zn7     Zn   0.15058   0.87922   0.66630   1.000
    Zn8     Zn   0.65057   0.87922   0.66630   1.000
    Zn9     Zn   0.00324   0.89426   0.62107   1.000
    Zn10    Zn   0.50323   0.89426   0.62107   1.000
    Zn11    Zn   0.34931   0.62068   0.16651   1.000
    Zn12    Zn   0.84931   0.62068   0.16651   1.000
    Zn13    Zn   0.49666   0.60589   0.12093   1.000
    Zn14    Zn   0.99665   0.60589   0.12093   1.000
    Zn15    Zn   0.34941   0.12076   0.33368   1.000
    C16     C    0.42650   0.27226   0.33328   1.000
    C17     C    0.92649   0.27226   0.33328   1.000
    C18     C    0.46210   0.53353   0.21760   1.000
    C19     C    0.96209   0.53353   0.21760   1.000
    C20     C    0.84235   0.51486   0.09016   1.000
    C21     C    0.38452   0.35300   0.93463   1.000
    C22     C    0.88452   0.35299   0.93463   1.000
    O23     O    0.36890   0.24623   0.31027   1.000
    O24     O    0.86890   0.24623   0.31027   1.000
    O25     O    0.44715   0.22702   0.37019   1.000
    O26     O    0.94714   0.22702   0.37019   1.000
    C27     C    0.34296   0.01559   0.41077   1.000
    C28     C    0.84295   0.01559   0.41077   1.000
    C29     C    0.38245   0.85305   0.56680   1.000
    C30     C    0.88244   0.85305   0.56680   1.000
    C31     C    0.07386   0.22766   0.83322   1.000
    C32     C    0.57385   0.22766   0.83322   1.000
    C33     C    0.03809   0.96653   0.71770   1.000
    C34     C    0.53809   0.96653   0.71774   1.000
    C35     C    0.15762   0.48513   0.90982   1.000
    C36     C    0.65762   0.48513   0.90980   1.000
    C37     C    0.11546   0.64701   0.06535   1.000
    C38     C    0.61545   0.64701   0.06535   1.000
    C39     C    0.07349   0.72772   0.66670   1.000
    C40     C    0.57349   0.72772   0.66670   1.000
    C41     C    0.03789   0.46645   0.78234   1.000
    C42     C    0.53788   0.46645   0.78234   1.000
    C43     C    0.15703   0.98439   0.58921   1.000
    C44     C    0.65703   0.98439   0.58921   1.000
    C45     C    0.11754   0.14692   0.43310   1.000
    C46     C    0.61753   0.14693   0.43319   1.000
    C47     C    0.42613   0.77232   0.16676   1.000
    C48     C    0.92612   0.77232   0.16676   1.000
    C49     C    0.46189   0.03346   0.28224   1.000
    C50     C    0.96189   0.03346   0.28224   1.000
    C51     C    0.34236   0.51486   0.09016   1.000
    O52     O    0.36873   0.78902   0.59573   1.000
    O53     O    0.86873   0.78902   0.59573   1.000
    O54     O    0.43807   0.91129   0.57014   1.000
    O55     O    0.93806   0.91130   0.57014   1.000
    O56     O    0.41040   0.03027   0.40663   1.000
    O57     O    0.91039   0.03027   0.40663   1.000
    O58     O    0.39406   0.53861   0.21283   1.000
    O59     O    0.89406   0.53861   0.21283   1.000
    O60     O    0.00969   0.56992   0.18933   1.000
    O61     O    0.50968   0.56992   0.18933   1.000
    O62     O    0.29677   0.05363   0.38283   1.000
    O63     O    0.79676   0.05363   0.38283   1.000
    O64     O    0.13150   0.25387   0.81012   1.000
    O65     O    0.63149   0.25387   0.81012   1.000
    O66     O    0.05303   0.27282   0.87011   1.000
    O67     O    0.55302   0.27282   0.87011   1.000
    O68     O    0.12843   0.71125   0.09419   1.000
    O69     O    0.62842   0.71125   0.09419   1.000
    O70     O    0.05992   0.58861   0.06869   1.000
    O71     O    0.55991   0.58861   0.06869   1.000
    O72     O    0.09031   0.46897   0.90622   1.000
    O73     O    0.59030   0.46897   0.90622   1.000
    O74     O    0.10615   0.96139   0.71270   1.000
    O75     O    0.60615   0.96139   0.71270   1.000
    O76     O    0.49051   0.93025   0.68960   1.000
    O77     O    0.99050   0.93025   0.68960   1.000
    O78     O    0.20394   0.44844   0.88136   1.000
    O79     O    0.70393   0.44844   0.88136   1.000
    O80     O    0.13108   0.75375   0.68970   1.000
    O81     O    0.63108   0.75375   0.68970   1.000
    O82     O    0.05284   0.77296   0.62980   1.000
    O83     O    0.55283   0.77296   0.62900   1.000
    O84     O    0.13126   0.21096   0.40425   1.000
    O85     O    0.63125   0.21096   0.40425   1.000
    O86     O    0.06192   0.08867   0.42984   1.000
    O87     O    0.56191   0.08868   0.42984   1.000
    O88     O    0.08959   0.96971   0.59330   1.000
    O89     O    0.58958   0.96971   0.59330   1.000
    O90     O    0.10592   0.46137   0.78715   1.000
    O91     O    0.60592   0.46137   0.78715   1.000
    O92     O    0.49030   0.43006   0.81065   1.000
    O93     O    0.99030   0.43006   0.81065   1.000
    O94     O    0.20322   0.94634   0.61715   1.000
    O95     O    0.70321   0.94634   0.61715   1.000
    O96     O    0.36849   0.74611   0.18980   1.000
    O97     O    0.86848   0.74611   0.18980   1.000
    O98     O    0.44696   0.72716   0.12988   1.000
    O99     O    0.94695   0.72716   0.12988   1.000
    O100    O    0.37157   0.28874   0.90579   1.000
    O101    O    0.87156   0.28874   0.90579   1.000
    O102    O    0.44006   0.41140   0.93129   1.000
    O103    O    0.94005   0.41140   0.93129   1.000
    O104    O    0.40967   0.53101   0.09370   1.000
    O105    O    0.90967   0.53101   0.09370   1.000
    O106    O    0.39383   0.03859   0.28729   1.000
    O107    O    0.89383   0.03859   0.28729   1.000
    O108    O    0.00948   0.06973   0.31038   1.000
    O109    O    0.50947   0.06974   0.31038   1.000
    O110    O    0.29605   0.55155   0.11862   1.000
    O111    O    0.79604   0.55155   0.11862   1.000
loop_
    _geom_bond_atom_site_label_1
    _geom_bond_atom_site_label_2
    _geom_bond_distance
    _geom_bond_site_symmetry_2
    _ccdc_geom_bond_type
    C38    O71       1.31177      .   S
    C38    O69       1.24451      .   S
    C37    O70       1.31175      .   S
    C37    O68       1.24452      .   S
    O71    Zn13      1.88590      .   S
    O70    Zn14      1.88608  1_455   S
    C51    O104      1.26934      .   S
    C51    O110      1.29856      .   S
    C20    O105      1.26934      .   S
    C20    O111      1.29858      .   S
    O104   Zn13      2.05609      .   S
    O105   Zn14      2.05608      .   S
    O111   Zn12      1.91518      .   S
    O110   Zn11      1.91518      .   S
    Zn13   O98       2.04213      .   S
    Zn13   O61       1.97989      .   S
    Zn14   O99       2.04213      .   S
    Zn14   O60       1.97993  1_655   S
    O99    C48       1.28193      .   S
    O98    C47       1.28193      .   S
    Zn11   O96       1.95260      .   S
    Zn11   O58       1.96159      .   S
    Zn12   O97       1.95262      .   S
    Zn12   O59       1.96158      .   S
    C47    O96       1.28987      .   S
    C48    O97       1.28987      .   S
    O60    C19       1.27708  1_455   S
    O61    C18       1.27687      .   S
    O59    C19       1.27969      .   S
    O58    C18       1.27969      .   S
    C49    O106      1.28049      .   S
    C49    O109      1.27727      .   S
    C50    O107      1.28049      .   S
    C50    O108      1.27746  1_655   S
    O106   Zn15      1.96022      .   S
    O107   Zn0       1.96022      .   S
    O24    C17       1.29086      .   S
    O24    Zn0       1.95309      .   S
    O23    C16       1.29086      .   S
    O23    Zn15      1.95309      .   S
    O108   Zn2       1.98301  1_455   S
    O109   Zn1       1.98297      .   S
    C16    O25       1.28243      .   S
    C17    O26       1.28243      .   S
    Zn0    O63       1.91470      .   S
    Zn15   O62       1.91469      .   S
    O26    Zn2       2.04090      .   S
    O25    Zn1       2.04090      .   S
    Zn2    O57       2.05245      .   S
    Zn2    O86       1.88449  1_655   S
    Zn1    O56       2.05245      .   S
    Zn1    O87       1.88426      .   S
    O62    C27       1.29881      .   S
    O63    C28       1.29880      .   S
    O84    C45       1.24267      .   S
    O85    C46       1.24426      .   S
    O57    C28       1.26973      .   S
    O56    C27       1.26972      .   S
    O86    C45       1.31188      .   S
    O87    C46       1.31206      .   S
    C30    O55       1.31204      .   S
    C30    O53       1.24405      .   S
    C29    O54       1.31204      .   S
    C29    O52       1.24403      .   S
    O54    Zn10      1.88439      .   S
    O55    Zn9       1.88462  1_655   S
    C44    O89       1.26961      .   S
    C44    O95       1.29882      .   S
    C43    O88       1.26960      .   S
    C43    O94       1.29880      .   S
    O89    Zn10      2.05307      .   S
    O88    Zn9       2.05306      .   S
    O94    Zn7       1.91466      .   S
    O95    Zn8       1.91465      .   S
    Zn10   O83       2.03840      .   S
    Zn10   O76       1.98272      .   S
    Zn9    O82       2.04090      .   S
    Zn9    O77       1.98276  1_455   S
    O83    C40       1.29989      .   S
    O82    C39       1.28222      .   S
    Zn7    O80       1.95300      .   S
    Zn7    O74       1.96042      .   S
    Zn8    O81       1.95301      .   S
    Zn8    O75       1.96040      .   S
    C39    O80       1.29071      .   S
    C40    O81       1.29071      .   S
    O77    C33       1.27677  1_655   S
    O76    C34       1.27725      .   S
    O74    C33       1.28034      .   S
    O75    C34       1.28048      .   S
    C42    O91       1.27984      .   S
    C42    O92       1.27753      .   S
    C41    O90       1.27982      .   S
    C41    O93       1.27773  1_455   S
    O91    Zn4       1.96174      .   S
    O90    Zn3       1.96175      .   S
    O64    C31       1.29067      .   S
    O64    Zn3       1.95326      .   S
    O65    C32       1.29067      .   S
    O65    Zn4       1.95326      .   S
    O92    Zn6       1.97986      .   S
    O93    Zn5       1.97990  1_655   S
    C32    O67       1.28216      .   S
    C31    O66       1.28216      .   S
    Zn3    O78       1.91500      .   S
    Zn4    O79       1.91499      .   S
    O66    Zn5       2.04212      .   S
    O67    Zn6       2.04212      .   S
    Zn6    O73       2.05545      .   S
    Zn6    O102      1.88610      .   S
    Zn5    O72       2.05544      .   S
    Zn5    O103      1.88627  1_455   S
    O79    C36       1.29825      .   S
    O78    C35       1.29860      .   S
    O101   C22       1.24460      .   S
    O100   C21       1.24461      .   S
    O73    C36       1.26942      .   S
    O72    C35       1.26947      .   S
    O103   C22       1.31174      .   S
    O102   C21       1.31175      .   S
