# CIF file generated by openbabel 2.4.90, see http://openbabel.sf.net
data_I
_chemical_name_common ''
_cell_length_a 18.626
_cell_length_b 14.536
_cell_length_c 27.649
_cell_angle_alpha 89.935
_cell_angle_beta 89.867
_cell_angle_gamma 92.543
_space_group_name_H-M_alt 'P 1'
_space_group_name_Hall 'P 1'
loop_
    _symmetry_equiv_pos_as_xyz
    x,y,z
loop_
    _atom_site_label
    _atom_site_type_symbol
    _atom_site_fract_x
    _atom_site_fract_y
    _atom_site_fract_z
    _atom_site_occupancy
    C0      C    0.42650   0.27226   0.33328   1.000
    C1      C    0.92649   0.27226   0.33328   1.000
    C2      C    0.46210   0.53353   0.21760   1.000
    C3      C    0.96209   0.53353   0.21760   1.000
    C4      C    0.84235   0.51486   0.09016   1.000
    C5      C    0.38452   0.35300   0.93463   1.000
    C6      C    0.88452   0.35299   0.93463   1.000
    C7      C    0.34296   0.01559   0.41077   1.000
    C8      C    0.84295   0.01559   0.41077   1.000
    C9      C    0.38245   0.85305   0.56680   1.000
    C10     C    0.88244   0.85305   0.56680   1.000
    C11     C    0.07386   0.22766   0.83322   1.000
    C12     C    0.57385   0.22766   0.83322   1.000
    C13     C    0.03809   0.96653   0.71770   1.000
    C14     C    0.53809   0.96653   0.71774   1.000
    C15     C    0.15762   0.48513   0.90982   1.000
    C16     C    0.65762   0.48513   0.90980   1.000
    C17     C    0.11546   0.64701   0.06535   1.000
    C18     C    0.61545   0.64701   0.06535   1.000
    C19     C    0.07349   0.72772   0.66670   1.000
    C20     C    0.57349   0.72772   0.66670   1.000
    C21     C    0.03789   0.46645   0.78234   1.000
    C22     C    0.53788   0.46645   0.78234   1.000
    C23     C    0.15703   0.98439   0.58921   1.000
    C24     C    0.65703   0.98439   0.58921   1.000
    C25     C    0.11754   0.14692   0.43310   1.000
    C26     C    0.61753   0.14693   0.43319   1.000
    C27     C    0.42613   0.77232   0.16676   1.000
    C28     C    0.92612   0.77232   0.16676   1.000
    C29     C    0.46189   0.03346   0.28224   1.000
    C30     C    0.96189   0.03346   0.28224   1.000
    C31     C    0.34236   0.51486   0.09016   1.000
