# CIF file generated by openbabel 2.4.90, see http://openbabel.sf.net
data_I
_chemical_name_common ''
_cell_length_a 18.626
_cell_length_b 14.536
_cell_length_c 27.649
_cell_angle_alpha 89.935
_cell_angle_beta 89.867
_cell_angle_gamma 92.543
_space_group_name_H-M_alt 'P 1'
_space_group_name_Hall 'P 1'
loop_
    _symmetry_equiv_pos_as_xyz
    x,y,z
loop_
    _atom_site_label
    _atom_site_type_symbol
    _atom_site_fract_x
    _atom_site_fract_y
    _atom_site_fract_z
    _atom_site_occupancy
    N0      N    0.01186   0.42701   0.29822   1.000
    N1      N    0.79164   0.88913   0.48469   1.000
    O2      O    0.23049   0.51411   0.37805   1.000
    N3      N    0.48860   0.07290   0.79854   1.000
    N4      N    0.70786   0.61108   0.98386   1.000
    O5      O    0.92957   0.78017   0.96168   1.000
    N6      N    0.29212   0.38891   0.01611   1.000
    N7      N    0.51138   0.92708   0.20144   1.000
    O8      O    0.73027   0.01398   0.12142   1.000
    N9      N    0.79211   0.38891   0.01611   1.000
    N10     N    0.01138   0.92708   0.20144   1.000
    O11     O    0.57017   0.21981   0.03828   1.000
    N12     N    0.20834   0.11084   0.51529   1.000
    N13     N    0.98812   0.57297   0.70175   1.000
    O14     O    0.43003   0.27993   0.53824   1.000
    N15     N    0.51186   0.42701   0.29822   1.000
    N16     N    0.29165   0.88913   0.48469   1.000
    O17     O    0.73049   0.51411   0.37805   1.000
    N18     N    0.70833   0.11084   0.51529   1.000
    N19     N    0.48812   0.57297   0.70175   1.000
    O20     O    0.92979   0.27993   0.53824   1.000
    N21     N    0.98860   0.07290   0.79854   1.000
    N22     N    0.20787   0.61108   0.98387   1.000
    O23     O    0.42981   0.78017   0.96170   1.000
    Zr24    Zr   0.04961   0.38152   0.86252   1.000
    O25     O    0.03511   0.25566   0.83707   1.000
    O26     O    0.93802   0.37844   0.92427   1.000
    O27     O    0.11956   0.47282   0.90945   1.000
    O28     O    0.02814   0.45735   0.79701   1.000
    Zr29    Zr   0.54893   0.88142   0.63751   1.000
    O30     O    0.43716   0.87847   0.57625   1.000
    O31     O    0.52798   0.95729   0.70311   1.000
    O32     O    0.61925   0.97256   0.59011   1.000
    O33     O    0.53455   0.75565   0.66301   1.000
    Zr34    Zr   0.45105   0.11856   0.36241   1.000
    O35     O    0.47200   0.04269   0.29684   1.000
    O36     O    0.46544   0.24433   0.33693   1.000
    O37     O    0.38074   0.02742   0.40984   1.000
    O38     O    0.56282   0.12151   0.42370   1.000
    Zr39    Zr   0.45038   0.61846   0.13745   1.000
    O40     O    0.47185   0.54264   0.20296   1.000
    O41     O    0.56195   0.62155   0.07570   1.000
    O42     O    0.46487   0.74432   0.16291   1.000
    O43     O    0.38042   0.52717   0.09052   1.000
    Zr44    Zr   0.95105   0.11856   0.36241   1.000
    O45     O    0.97200   0.04269   0.29684   1.000
    O46     O    0.96543   0.24433   0.33693   1.000
    O47     O    0.88073   0.02742   0.40983   1.000
    O48     O    0.06282   0.12150   0.42368   1.000
    Zr49    Zr   0.95037   0.61846   0.13745   1.000
    O50     O    0.97184   0.54264   0.20296   1.000
    O51     O    0.96487   0.74432   0.16291   1.000
    O52     O    0.88042   0.52716   0.09052   1.000
    O53     O    0.06196   0.62155   0.07571   1.000
    Zr54    Zr   0.54960   0.38152   0.86252   1.000
    O55     O    0.53511   0.25566   0.83707   1.000
    O56     O    0.43802   0.37845   0.92427   1.000
    O57     O    0.61955   0.47282   0.90945   1.000
    O58     O    0.52813   0.45735   0.79701   1.000
    Zr59    Zr   0.04893   0.88142   0.63756   1.000
    O60     O    0.02799   0.95729   0.70313   1.000
    O61     O    0.93716   0.87847   0.57628   1.000
    O62     O    0.03455   0.75565   0.66304   1.000
    O63     O    0.11925   0.97256   0.59014   1.000
loop_
    _geom_bond_atom_site_label_1
    _geom_bond_atom_site_label_2
    _geom_bond_distance
    _geom_bond_site_symmetry_2
    _ccdc_geom_bond_type
    N1     O2       10.44535  1_655   S
    N0     O2        4.75905      .   S
    N3     O5       10.44714  1_545   S
    N4     O5        4.74918      .   S
    N6     O8       10.43102      .   S
    N7     O8        4.75475  1_565   S
    N10    O11      10.45107  1_465   S
    N9     O11       4.75286      .   S
    N13    O14      10.45534  1_655   S
    N12    O14       4.75486      .   S
    N16    O17      10.44514      .   S
    N15    O17       4.75904      .   S
    N19    O20      10.45177      .   S
    N18    O20       4.75124      .   S
    N21    O23      10.45091  1_645   S
    N22    O23       4.75288      .   S
    Zr24   O25       1.96850      .   S
    N21    O25       2.95796  1_655   S
    Zr24   O26       2.68554  1_455   S
    N9     O26       3.72332  1_554   S
    Zr24   O27       2.23640      .   S
    N22    O27       3.27255      .   S
    Zr24   O28       2.16641      .   S
    N13    O28       3.22909  1_655   S
    Zr29   O30       2.68567      .   S
    N16    O30       3.72125      .   S
    Zr29   O31       2.16750      .   S
    N3     O31       3.23024  1_545   S
    Zr29   O32       2.24100      .   S
    N18    O32       3.27909  1_545   S
    Zr29   O33       1.96575      .   S
    N19    O33       2.95491      .   S
    Zr34   O35       2.16676      .   S
    N7     O35       3.22954  1_565   S
    Zr34   O36       1.96549      .   S
    N15    O36       2.95469      .   S
    Zr34   O37       2.24146      .   S
    N16    O37       3.27955  1_565   S
    Zr34   O38       2.68619      .   S
    N18    O38       3.72171      .   S
    Zr39   O40       2.16638      .   S
    N15    O40       3.22918      .   S
    Zr39   O41       2.68538      .   S
    N4     O41       3.72331  1_556   S
    Zr39   O42       1.96853      .   S
    N7     O42       2.95796      .   S
    Zr39   O43       2.23627      .   S
    N6     O43       3.27236      .   S
    Zr44   O45       2.16666      .   S
    N10    O45       3.22942  1_465   S
    Zr44   O46       1.96546      .   S
    N0     O46       2.95468  1_455   S
    Zr44   O47       2.24153      .   S
    N1     O47       3.27962  1_565   S
    Zr44   O48       2.68615  1_655   S
    N12    O48       3.72212      .   S
    Zr49   O50       2.16638      .   S
    N0     O50       3.22920  1_455   S
    Zr49   O51       1.96854      .   S
    N10    O51       2.95802  1_455   S
    Zr49   O52       2.23630      .   S
    N9     O52       3.27239      .   S
    Zr49   O53       2.68540  1_655   S
    N22    O53       3.72316  1_556   S
    Zr54   O55       1.96849      .   S
    N3     O55       2.95793      .   S
    Zr54   O56       2.68548      .   S
    N6     O56       3.72325  1_554   S
    Zr54   O57       2.23628      .   S
    N4     O57       3.27238      .   S
    Zr54   O58       2.16639      .   S
    N19    O58       3.22906      .   S
    Zr59   O60       2.16675      .   S
    N21    O60       3.22978  1_645   S
    Zr59   O61       2.68623  1_455   S
    N1     O61       3.72184      .   S
    Zr59   O62       1.96549      .   S
    N13    O62       2.95466  1_655   S
    Zr59   O63       2.24143      .   S
    N12    O63       3.27951  1_545   S
