# CIF file generated by openbabel 2.4.90, see http://openbabel.sf.net
data_I
_chemical_name_common 'VESTA_phase_1'
_cell_length_a 23.047
_cell_length_b 15.562
_cell_length_c 16.219
_cell_angle_alpha 89.978
_cell_angle_beta 89.974
_cell_angle_gamma 90.074
_space_group_name_H-M_alt 'P 1'
_space_group_name_Hall 'P 1'
loop_
    _symmetry_equiv_pos_as_xyz
    x,y,z
loop_
    _atom_site_label
    _atom_site_type_symbol
    _atom_site_fract_x
    _atom_site_fract_y
    _atom_site_fract_z
    _atom_site_occupancy
    Y0      Y    0.13189   0.76822   0.43366   1.000
    Y1      Y    0.63170   0.76740   0.43370   1.000
    Y2      Y    0.12563   0.79959   0.05070   1.000
    Y3      Y    0.62564   0.79949   0.05085   1.000
    Y4      Y    0.11829   0.23270   0.93364   1.000
    Y5      Y    0.61830   0.23254   0.93373   1.000
    Y6      Y    0.12460   0.20078   0.55068   1.000
    Y7      Y    0.62451   0.20049   0.55080   1.000
    Y8      Y    0.36810   0.26825   0.06636   1.000
    Y9      Y    0.86814   0.26821   0.06600   1.000
    Y10     Y    0.37477   0.29978   0.44920   1.000
    Y11     Y    0.87455   0.29910   0.44943   1.000
    Y12     Y    0.38172   0.73272   0.56626   1.000
    Y13     Y    0.88173   0.73169   0.56628   1.000
    Y14     Y    0.37562   0.70081   0.94917   1.000
    Y15     Y    0.87563   0.70081   0.94928   1.000
    P16     P    0.12732   0.81823   0.82009   1.000
    P17     P    0.62725   0.81815   0.82021   1.000
    P18     P    0.15529   0.96783   0.54325   1.000
    P19     P    0.65422   0.96686   0.54328   1.000
    P20     P    0.12272   0.18182   0.32016   1.000
    P21     P    0.62275   0.18185   0.32019   1.000
    P22     P    0.09577   0.03311   0.04320   1.000
    P23     P    0.59575   0.03291   0.04331   1.000
    P24     P    0.37272   0.31823   0.67987   1.000
    P25     P    0.87273   0.31817   0.67996   1.000
    P26     P    0.34457   0.46787   0.95666   1.000
    P27     P    0.84462   0.46784   0.95674   1.000
    P28     P    0.37723   0.68191   0.17977   1.000
    P29     P    0.87731   0.68181   0.17992   1.000
    P30     P    0.40445   0.53341   0.45669   1.000
    P31     P    0.90546   0.53210   0.45676   1.000
    H32     H    0.19457   0.75805   0.74279   1.000
    H33     H    0.69457   0.75813   0.74288   1.000
    H34     H    0.23102   0.04825   0.53461   1.000
    H35     H    0.73041   0.04604   0.53354   1.000
    H36     H    0.11593   0.02669   0.70183   1.000
    H37     H    0.61552   0.02652   0.70199   1.000
    H38     H    0.43569   0.17214   0.74512   1.000
    H39     H    0.93594   0.17198   0.74519   1.000
    H40     H    0.16442   0.96430   0.81152   1.000
    H41     H    0.66405   0.96441   0.81167   1.000
    H42     H    0.09004   0.96297   0.83353   1.000
    H43     H    0.58969   0.96269   0.83383   1.000
    H44     H    0.19751   0.93099   0.67677   1.000
    H45     H    0.69706   0.93140   0.67666   1.000
    H46     H    0.14684   0.85175   0.64309   1.000
    H47     H    0.64662   0.85145   0.64383   1.000
    H48     H    0.04379   0.86815   0.68189   1.000
    H49     H    0.54332   0.86795   0.68243   1.000
    H50     H    0.04624   0.96050   0.61474   1.000
    H51     H    0.54577   0.96005   0.61502   1.000
    H52     H    0.48978   0.87703   0.81521   1.000
    H53     H    0.99018   0.87679   0.81470   1.000
    H54     H    0.41846   0.95606   0.90171   1.000
    H55     H    0.91880   0.95556   0.90134   1.000
    H56     H    0.39505   0.11157   0.86360   1.000
    H57     H    0.89533   0.11114   0.86358   1.000
    H58     H    0.00194   0.10085   0.65717   1.000
    H59     H    0.50162   0.10070   0.65716   1.000
    H60     H    0.05543   0.24185   0.24285   1.000
    H61     H    0.55548   0.24186   0.24286   1.000
    H62     H    0.01967   0.95378   0.03346   1.000
    H63     H    0.51971   0.95343   0.03362   1.000
    H64     H    0.13453   0.97351   0.20190   1.000
    H65     H    0.63452   0.97342   0.20213   1.000
    H66     H    0.31433   0.82828   0.24486   1.000
    H67     H    0.81425   0.82800   0.24491   1.000
    H68     H    0.08588   0.03559   0.31170   1.000
    H69     H    0.58588   0.03562   0.31182   1.000
    H70     H    0.16024   0.03724   0.33374   1.000
    H71     H    0.66024   0.03725   0.33383   1.000
    H72     H    0.05279   0.06795   0.17671   1.000
    H73     H    0.55278   0.06788   0.17678   1.000
    H74     H    0.10293   0.14839   0.14387   1.000
    H75     H    0.60292   0.14827   0.14388   1.000
    H76     H    0.20646   0.13233   0.18228   1.000
    H77     H    0.70649   0.13219   0.18235   1.000
    H78     H    0.20416   0.04028   0.11486   1.000
    H79     H    0.70414   0.04014   0.11493   1.000
    H80     H    0.26023   0.12336   0.31485   1.000
    H81     H    0.76025   0.12312   0.31496   1.000
    H82     H    0.33171   0.04439   0.40114   1.000
    H83     H    0.83164   0.04405   0.40129   1.000
    H84     H    0.35514   0.88895   0.36309   1.000
    H85     H    0.85498   0.88853   0.36322   1.000
    H86     H    0.24829   0.89963   0.15707   1.000
    H87     H    0.74828   0.89949   0.15706   1.000
    H88     H    0.30538   0.25779   0.75708   1.000
    H89     H    0.80541   0.25775   0.75710   1.000
    H90     H    0.26893   0.54814   0.96550   1.000
    H91     H    0.76897   0.54811   0.96552   1.000
    H92     H    0.38425   0.52670   0.79806   1.000
    H93     H    0.88416   0.52665   0.79814   1.000
    H94     H    0.06421   0.67205   0.75495   1.000
    H95     H    0.56433   0.67172   0.75511   1.000
    H96     H    0.33587   0.46429   0.68816   1.000
    H97     H    0.83583   0.46420   0.68827   1.000
    H98     H    0.41031   0.46294   0.66663   1.000
    H99     H    0.91025   0.46292   0.66660   1.000
    H100    H    0.30221   0.43204   0.82293   1.000
    H101    H    0.80229   0.43176   0.82306   1.000
    H102    H    0.35219   0.35202   0.85662   1.000
    H103    H    0.85241   0.35192   0.85676   1.000
    H104    H    0.45580   0.36795   0.81869   1.000
    H105    H    0.95593   0.36810   0.81861   1.000
    H106    H    0.45343   0.46033   0.88571   1.000
    H107    H    0.95352   0.46047   0.88560   1.000
    H108    H    0.00995   0.37651   0.68623   1.000
    H109    H    0.50996   0.37623   0.68641   1.000
    H110    H    0.08153   0.45524   0.59955   1.000
    H111    H    0.58173   0.45478   0.59989   1.000
    H112    H    0.10499   0.61097   0.63687   1.000
    H113    H    0.60523   0.61049   0.63716   1.000
    H114    H    0.49807   0.60075   0.84306   1.000
    H115    H    0.99805   0.60097   0.84297   1.000
    H116    H    0.44457   0.74227   0.25688   1.000
    H117    H    0.94462   0.74219   0.25707   1.000
    H118    H    0.48074   0.45469   0.46669   1.000
    H119    H    0.98112   0.45183   0.46540   1.000
    H120    H    0.36556   0.47366   0.29815   1.000
    H121    H    0.86589   0.47336   0.29827   1.000
    H122    H    0.18549   0.32817   0.25461   1.000
    H123    H    0.68573   0.32821   0.25486   1.000
    H124    H    0.41392   0.53576   0.18821   1.000
    H125    H    0.91426   0.53583   0.18834   1.000
    H126    H    0.33952   0.53729   0.16643   1.000
    H127    H    0.83984   0.53702   0.16675   1.000
    H128    H    0.44723   0.56869   0.32309   1.000
    H129    H    0.94773   0.56855   0.32304   1.000
    H130    H    0.39701   0.64872   0.35607   1.000
    H131    H    0.89748   0.64813   0.35686   1.000
    H132    H    0.29359   0.63210   0.31824   1.000
    H133    H    0.79411   0.63188   0.31880   1.000
    H134    H    0.29590   0.53973   0.38531   1.000
    H135    H    0.79647   0.53936   0.38574   1.000
    H136    H    0.23974   0.62375   0.18580   1.000
    H137    H    0.74021   0.62378   0.18639   1.000
    H138    H    0.16814   0.54513   0.09924   1.000
    H139    H    0.66857   0.54533   0.09970   1.000
    H140    H    0.14461   0.38944   0.13662   1.000
    H141    H    0.64498   0.38961   0.13689   1.000
    H142    H    0.25166   0.39916   0.34251   1.000
    H143    H    0.75193   0.39901   0.34289   1.000
    C144    C    0.12330   0.93350   0.79446   1.000
    C145    C    0.62298   0.93341   0.79469   1.000
    C146    C    0.15484   0.92102   0.64849   1.000
    C147    C    0.65434   0.92082   0.64874   1.000
    C148    C    0.04888   0.93814   0.67876   1.000
    C149    C    0.54844   0.93792   0.67911   1.000
    C150    C    0.00432   0.98306   0.73130   1.000
    C151    C    0.50393   0.98306   0.73153   1.000
    C152    C    0.47841   0.94316   0.80008   1.000
    C153    C    0.97880   0.94296   0.79970   1.000
    C154    C    0.43834   0.98726   0.84868   1.000
    C155    C    0.93870   0.98692   0.84840   1.000
    C156    C    0.42419   0.07106   0.82795   1.000
    C157    C    0.92450   0.07075   0.82786   1.000
    C158    C    0.48644   0.06631   0.71188   1.000
    C159    C    0.98679   0.06634   0.71183   1.000
    C160    C    0.24408   0.73379   0.54466   1.000
    C161    C    0.74394   0.73343   0.54474   1.000
    C162    C    0.26819   0.76607   0.46118   1.000
    C163    C    0.76812   0.76474   0.46102   1.000
    C164    C    0.12772   0.82855   0.25054   1.000
    C165    C    0.62782   0.82837   0.25074   1.000
    C166    C    0.12989   0.72999   0.24247   1.000
    C167    C    0.62991   0.72982   0.24248   1.000
    C168    C    0.23833   0.70040   0.98861   1.000
    C169    C    0.73834   0.70038   0.98865   1.000
    C170    C    0.26037   0.79100   0.01147   1.000
    C171    C    0.76038   0.79097   0.01151   1.000
    C172    C    0.12696   0.06657   0.29465   1.000
    C173    C    0.62696   0.06657   0.29473   1.000
    C174    C    0.09548   0.07895   0.14875   1.000
    C175    C    0.59546   0.07883   0.14881   1.000
    C176    C    0.20147   0.06234   0.17890   1.000
    C177    C    0.70146   0.06221   0.17903   1.000
    C178    C    0.24604   0.01729   0.23131   1.000
    C179    C    0.74601   0.01710   0.23138   1.000
    C180    C    0.27162   0.05724   0.29972   1.000
    C181    C    0.77160   0.05699   0.29982   1.000
    C182    C    0.31177   0.01318   0.34820   1.000
    C183    C    0.81169   0.01285   0.34834   1.000
    C184    C    0.32596   0.92941   0.32748   1.000
    C185    C    0.82582   0.92905   0.32763   1.000
    C186    C    0.26353   0.93405   0.21169   1.000
    C187    C    0.76349   0.93385   0.21173   1.000
    C188    C    0.50596   0.26663   0.04479   1.000
    C189    C    0.00000   0.26663   0.04478   1.000
    C190    C    0.48185   0.23525   0.96107   1.000
    C191    C    0.98186   0.23526   0.96106   1.000
    C192    C    0.12236   0.17175   0.75066   1.000
    C193    C    0.62227   0.17155   0.75074   1.000
    C194    C    0.12019   0.27030   0.74234   1.000
    C195    C    0.62014   0.27011   0.74245   1.000
    C196    C    0.01177   0.29957   0.48877   1.000
    C197    C    0.51199   0.30070   0.48909   1.000
    C198    C    0.48994   0.20980   0.51124   1.000
    C199    C    0.98979   0.20903   0.51202   1.000
    C200    C    0.37688   0.43348   0.70550   1.000
    C201    C    0.87686   0.43343   0.70550   1.000
    C202    C    0.34476   0.42141   0.85132   1.000
    C203    C    0.84487   0.42128   0.85143   1.000
    C204    C    0.45092   0.43794   0.82170   1.000
    C205    C    0.95099   0.43808   0.82164   1.000
    C206    C    0.49574   0.48273   0.76936   1.000
    C207    C    0.99573   0.48297   0.76922   1.000
    C208    C    0.02136   0.44274   0.70100   1.000
    C209    C    0.52143   0.44244   0.70122   1.000
    C210    C    0.06155   0.48668   0.65233   1.000
    C211    C    0.56171   0.48628   0.65260   1.000
    C212    C    0.07574   0.57060   0.67264   1.000
    C213    C    0.57594   0.57019   0.67292   1.000
    C214    C    0.01326   0.56634   0.78849   1.000
    C215    C    0.51333   0.56608   0.78862   1.000
    C216    C    0.25589   0.23380   0.95529   1.000
    C217    C    0.75591   0.23375   0.95535   1.000
    C218    C    0.23183   0.26607   0.03877   1.000
    C219    C    0.73185   0.26606   0.03881   1.000
    C220    C    0.37253   0.32864   0.24938   1.000
    C221    C    0.87257   0.32843   0.24950   1.000
    C222    C    0.37021   0.23008   0.25755   1.000
    C223    C    0.87024   0.22986   0.25759   1.000
    C224    C    0.26188   0.20049   0.51121   1.000
    C225    C    0.76173   0.19953   0.51111   1.000
    C226    C    0.23994   0.29097   0.48798   1.000
    C227    C    0.73993   0.29041   0.48884   1.000
    C228    C    0.37290   0.56668   0.20538   1.000
    C229    C    0.87321   0.56656   0.20562   1.000
    C230    C    0.40457   0.57934   0.35119   1.000
    C231    C    0.90514   0.57881   0.35140   1.000
    C232    C    0.29856   0.56212   0.32129   1.000
    C233    C    0.79905   0.56189   0.32176   1.000
    C234    C    0.25392   0.51724   0.26882   1.000
    C235    C    0.75432   0.51715   0.26929   1.000
    C236    C    0.22830   0.55752   0.20060   1.000
    C237    C    0.72873   0.55754   0.20114   1.000
    C238    C    0.18809   0.51366   0.15201   1.000
    C239    C    0.68850   0.51379   0.15245   1.000
    C240    C    0.17387   0.42974   0.17236   1.000
    C241    C    0.67424   0.42985   0.17269   1.000
    C242    C    0.23639   0.43385   0.28807   1.000
    C243    C    0.73672   0.43377   0.28847   1.000
    C244    C    0.99407   0.76665   0.45534   1.000
    C245    C    0.49412   0.76616   0.45522   1.000
    C246    C    0.01814   0.73522   0.53905   1.000
    C247    C    0.51810   0.73389   0.53871   1.000
    C248    C    0.37773   0.67176   0.74924   1.000
    C249    C    0.87709   0.67156   0.74941   1.000
    C250    C    0.37989   0.77032   0.75748   1.000
    C251    C    0.87974   0.77012   0.75742   1.000
    C252    C    0.48845   0.80019   0.01110   1.000
    C253    C    0.98846   0.80032   0.01109   1.000
    C254    C    0.01029   0.70949   0.98876   1.000
    C255    C    0.51029   0.70939   0.98878   1.000
    N256    N    0.11065   0.95823   0.70633   1.000
    N257    N    0.61020   0.95807   0.70650   1.000
    N258    N    0.44786   0.10755   0.76016   1.000
    N259    N    0.94818   0.10743   0.76016   1.000
    N260    N    0.13973   0.04196   0.20654   1.000
    N261    N    0.63972   0.04189   0.20663   1.000
    N262    N    0.30218   0.89285   0.25985   1.000
    N263    N    0.80209   0.89258   0.25993   1.000
    N264    N    0.38932   0.45823   0.79369   1.000
    N265    N    0.88934   0.45822   0.79373   1.000
    N266    N    0.05197   0.60741   0.74013   1.000
    N267    N    0.55212   0.60706   0.74033   1.000
    N268    N    0.36027   0.54205   0.29356   1.000
    N269    N    0.86072   0.54180   0.29383   1.000
    N270    N    0.19766   0.39285   0.23979   1.000
    N271    N    0.69797   0.39288   0.24010   1.000
    O272    O    0.08241   0.76993   0.77076   1.000
    O273    O    0.58241   0.76976   0.77083   1.000
    O274    O    0.12511   0.81854   0.91280   1.000
    O275    O    0.62509   0.81846   0.91299   1.000
    O276    O    0.19247   0.78904   0.79511   1.000
    O277    O    0.69244   0.78914   0.79519   1.000
    O278    O    0.11992   0.04896   0.54125   1.000
    O279    O    0.61951   0.04861   0.54124   1.000
    O280    O    0.13433   0.89499   0.48870   1.000
    O281    O    0.63239   0.89392   0.48949   1.000
    O282    O    0.22198   0.98482   0.52460   1.000
    O283    O    0.72094   0.98275   0.52398   1.000
    O284    O    0.18959   0.72210   0.54839   1.000
    O285    O    0.68941   0.72215   0.54858   1.000
    O286    O    0.28047   0.72255   0.60201   1.000
    O287    O    0.78032   0.72245   0.60214   1.000
    O288    O    0.32230   0.78108   0.45830   1.000
    O289    O    0.82242   0.77805   0.45773   1.000
    O290    O    0.23236   0.77455   0.40270   1.000
    O291    O    0.73224   0.77420   0.40275   1.000
    O292    O    0.13198   0.86218   0.32064   1.000
    O293    O    0.63209   0.86182   0.32092   1.000
    O294    O    0.12319   0.87078   0.18335   1.000
    O295    O    0.62333   0.87071   0.18360   1.000
    O296    O    0.13015   0.70085   0.16993   1.000
    O297    O    0.63016   0.70078   0.16991   1.000
    O298    O    0.13249   0.68854   0.31015   1.000
    O299    O    0.63249   0.68824   0.31008   1.000
    O300    O    0.27578   0.65082   0.95464   1.000
    O301    O    0.77580   0.65079   0.95471   1.000
    O302    O    0.18709   0.68131   0.00717   1.000
    O303    O    0.68710   0.68128   0.00721   1.000
    O304    O    0.22470   0.83708   0.05195   1.000
    O305    O    0.72471   0.83706   0.05196   1.000
    O306    O    0.31123   0.81087   0.99067   1.000
    O307    O    0.81124   0.81086   0.99071   1.000
    O308    O    0.16759   0.23021   0.27073   1.000
    O309    O    0.66762   0.23021   0.27074   1.000
    O310    O    0.12489   0.18146   0.41293   1.000
    O311    O    0.62494   0.18155   0.41297   1.000
    O312    O    0.05754   0.21088   0.29519   1.000
    O313    O    0.55758   0.21089   0.29521   1.000
    O314    O    0.13055   0.95144   0.04109   1.000
    O315    O    0.63058   0.95129   0.04122   1.000
    O316    O    0.11757   0.10622   0.98952   1.000
    O317    O    0.61753   0.10599   0.98950   1.000
    O318    O    0.02908   0.01710   0.02392   1.000
    O319    O    0.52908   0.01676   0.02398   1.000
    O320    O    0.06050   0.27788   0.04858   1.000
    O321    O    0.56050   0.27783   0.04860   1.000
    O322    O    0.46955   0.27768   0.10217   1.000
    O323    O    0.96958   0.27763   0.10219   1.000
    O324    O    0.42755   0.22191   0.95782   1.000
    O325    O    0.92757   0.22190   0.95782   1.000
    O326    O    0.01775   0.22582   0.90278   1.000
    O327    O    0.51776   0.22578   0.90279   1.000
    O328    O    0.11798   0.13837   0.82089   1.000
    O329    O    0.61796   0.13812   0.82096   1.000
    O330    O    0.12703   0.12941   0.68358   1.000
    O331    O    0.62683   0.12923   0.68362   1.000
    O332    O    0.11997   0.29933   0.66973   1.000
    O333    O    0.61990   0.29914   0.66986   1.000
    O334    O    0.11754   0.31188   0.80990   1.000
    O335    O    0.61756   0.31169   0.81002   1.000
    O336    O    0.47453   0.35092   0.45595   1.000
    O337    O    0.97432   0.34902   0.45467   1.000
    O338    O    0.06300   0.31879   0.50715   1.000
    O339    O    0.56336   0.31922   0.50737   1.000
    O340    O    0.02561   0.16295   0.55217   1.000
    O341    O    0.52546   0.16341   0.55168   1.000
    O342    O    0.43923   0.18979   0.48990   1.000
    O343    O    0.93881   0.18917   0.49193   1.000
    O344    O    0.41757   0.26994   0.72922   1.000
    O345    O    0.91760   0.26989   0.72926   1.000
    O346    O    0.37494   0.31858   0.58700   1.000
    O347    O    0.87492   0.31859   0.58718   1.000
    O348    O    0.30752   0.28900   0.70486   1.000
    O349    O    0.80753   0.28894   0.70490   1.000
    O350    O    0.38006   0.54902   0.95873   1.000
    O351    O    0.88011   0.54898   0.95883   1.000
    O352    O    0.36555   0.39491   0.01100   1.000
    O353    O    0.86557   0.39488   0.01116   1.000
    O354    O    0.27792   0.48474   0.97540   1.000
    O355    O    0.77796   0.48470   0.97540   1.000
    O356    O    0.31037   0.22208   0.95157   1.000
    O357    O    0.81038   0.22208   0.95160   1.000
    O358    O    0.21950   0.22265   0.89790   1.000
    O359    O    0.71950   0.22255   0.89799   1.000
    O360    O    0.17775   0.28109   0.04165   1.000
    O361    O    0.67776   0.28107   0.04169   1.000
    O362    O    0.26767   0.27448   0.09727   1.000
    O363    O    0.76769   0.27450   0.09731   1.000
    O364    O    0.36831   0.36221   0.17922   1.000
    O365    O    0.86854   0.36205   0.17934   1.000
    O366    O    0.37715   0.37090   0.31651   1.000
    O367    O    0.87702   0.37063   0.31668   1.000
    O368    O    0.36993   0.20100   0.33013   1.000
    O369    O    0.86999   0.20067   0.33014   1.000
    O370    O    0.36748   0.18857   0.18994   1.000
    O371    O    0.86749   0.18844   0.18994   1.000
    O372    O    0.22431   0.15098   0.54530   1.000
    O373    O    0.72415   0.14951   0.54448   1.000
    O374    O    0.31309   0.18132   0.49284   1.000
    O375    O    0.81302   0.18073   0.49270   1.000
    O376    O    0.27580   0.33706   0.44768   1.000
    O377    O    0.77563   0.33662   0.44836   1.000
    O378    O    0.18902   0.31082   0.50824   1.000
    O379    O    0.68924   0.31052   0.51006   1.000
    O380    O    0.33243   0.73027   0.22917   1.000
    O381    O    0.83244   0.73009   0.22925   1.000
    O382    O    0.37506   0.68154   0.08700   1.000
    O383    O    0.87510   0.68145   0.08713   1.000
    O384    O    0.44246   0.71096   0.20474   1.000
    O385    O    0.94250   0.71104   0.20484   1.000
    O386    O    0.36980   0.45150   0.45879   1.000
    O387    O    0.86999   0.45095   0.45885   1.000
    O388    O    0.38247   0.60624   0.51042   1.000
    O389    O    0.88455   0.60495   0.51126   1.000
    O390    O    0.47118   0.51792   0.47598   1.000
    O391    O    0.97213   0.51521   0.47534   1.000
    O392    O    0.43964   0.77790   0.45148   1.000
    O393    O    0.93958   0.77791   0.45149   1.000
    O394    O    0.03052   0.77768   0.39790   1.000
    O395    O    0.53054   0.77735   0.39784   1.000
    O396    O    0.07241   0.72184   0.54200   1.000
    O397    O    0.57219   0.71890   0.54160   1.000
    O398    O    0.48221   0.72548   0.59700   1.000
    O399    O    0.98222   0.72572   0.59732   1.000
    O400    O    0.38184   0.63834   0.67903   1.000
    O401    O    0.88053   0.63786   0.67924   1.000
    O402    O    0.37333   0.62942   0.81640   1.000
    O403    O    0.87298   0.62938   0.81668   1.000
    O404    O    0.38014   0.79939   0.83000   1.000
    O405    O    0.88020   0.79931   0.82994   1.000
    O406    O    0.38251   0.81189   0.68987   1.000
    O407    O    0.88252   0.81149   0.68970   1.000
    O408    O    0.02599   0.85031   0.04447   1.000
    O409    O    0.52600   0.85010   0.04468   1.000
    O410    O    0.43720   0.81907   0.99268   1.000
    O411    O    0.93718   0.81911   0.99268   1.000
    O412    O    0.47460   0.66323   0.94830   1.000
    O413    O    0.97462   0.66328   0.94833   1.000
    O414    O    0.06100   0.68944   0.00995   1.000
    O415    O    0.56100   0.68934   0.00995   1.000
loop_
    _geom_bond_atom_site_label_1
    _geom_bond_atom_site_label_2
    _geom_bond_distance
    _geom_bond_site_symmetry_2
    _ccdc_geom_bond_type
    O302   Y2        2.42898      .   S
    O302   C168      1.25385  1_554   S
    O303   Y3        2.42864      .   S
    O303   C169      1.25384  1_554   S
    O415   Y3        2.36493      .   S
    O415   C255      1.25791  1_554   S
    O414   Y2        2.36417      .   S
    O414   C254      1.25799  1_554   S
    O352   Y8        2.16653      .   S
    O352   P26       1.51690  1_554   S
    C253   O408      1.28273  1_655   S
    C253   C254      1.54402  1_654   S
    C253   O411      1.25419  1_554   S
    C252   O409      1.28363      .   S
    C252   C255      1.54370  1_554   S
    C252   O410      1.25388  1_554   S
    O353   Y9        2.16332      .   S
    O353   P27       1.51728  1_554   S
    C170   O304      1.27381      .   S
    C170   C168      1.54332  1_554   S
    C170   O306      1.25787  1_554   S
    C171   O305      1.27379      .   S
    C171   C169      1.54325  1_554   S
    C171   O307      1.25784  1_554   S
    O318   H62       1.02048  1_545   S
    O318   P22       1.58800      .   S
    O319   H63       1.02071  1_545   S
    O319   P23       1.58802      .   S
    C218   O360      1.26931      .   S
    C218   O362      1.26496      .   S
    C218   C216      1.54712  1_554   S
    C219   O361      1.26934      .   S
    C219   O363      1.26510      .   S
    C219   C217      1.54695  1_554   S
    O314   P22       1.50386  1_565   S
    O314   Y2        2.37078      .   S
    O315   P23       1.50386  1_565   S
    O315   Y3        2.37007      .   S
    O360   Y4        2.34829  1_554   S
    O361   Y5        2.34837  1_554   S
    P22    C174      1.85485      .   S
    P22    O316      1.51738  1_554   S
    P23    C175      1.85459      .   S
    P23    O317      1.51804  1_554   S
    C189   O320      1.40650      .   S
    C189   O323      1.17798  1_455   S
    C189   C191      1.50245  1_454   S
    C188   O321      1.27040      .   S
    C188   O322      1.26485      .   S
    C188   C190      1.54647  1_554   S
    O320   Y4        2.39672  1_554   S
    O321   Y5        2.39652  1_554   S
    Y2     O304      2.35601      .   S
    Y2     O294      2.42095      .   S
    Y2     O274      2.25588  1_554   S
    Y3     O305      2.35613      .   S
    Y3     O295      2.42258      .   S
    Y3     O275      2.25529  1_554   S
    Y9     O363      2.37205      .   S
    Y9     O365      2.34819      .   S
    Y9     O371      2.36221      .   S
    Y9     O357      2.39395  1_554   S
    Y9     O325      2.33991  1_554   S
    Y8     O362      2.37029      .   S
    Y8     O364      2.34325      .   S
    Y8     O370      2.35652      .   S
    Y8     O356      2.39875  1_554   S
    Y8     O324      2.34473  1_554   S
    O382   P28       1.50550      .   S
    O382   Y14       2.25541  1_554   S
    O383   P29       1.50585      .   S
    O383   Y15       2.25591  1_554   S
    H138   C238      1.08832      .   S
    H139   C239      1.08833      .   S
    H78    C176      1.09583      .   S
    H79    C177      1.09675      .   S
    H140   C240      1.08796      .   S
    H141   C241      1.08787      .   S
    H74    C174      1.09682      .   S
    H75    C175      1.09684      .   S
    C174   H72       1.09637      .   S
    C174   N260      1.50066      .   S
    C175   H73       1.09632      .   S
    C175   N261      1.50073      .   S
    C238   C240      1.38580      .   S
    C238   C236      1.39477      .   S
    C239   C241      1.38580      .   S
    C239   C237      1.39514      .   S
    H87    C187      1.09324      .   S
    H86    C186      1.09328      .   S
    H126   C228      1.09540      .   S
    H127   C229      1.09538      .   S
    O297   C167      1.26095      .   S
    O296   C166      1.26104      .   S
    C240   N270      1.35171      .   S
    C241   N271      1.35142      .   S
    C176   H76       1.09638      .   S
    C176   N260      1.52444      .   S
    C176   C178      1.50713      .   S
    C177   H77       1.09637      .   S
    C177   N261      1.52425      .   S
    C177   C179      1.50676      .   S
    O364   C220      1.25580      .   S
    O365   C221      1.25579      .   S
    P28    O384      1.62095      .   S
    P28    C228      1.84322      .   S
    P28    O380      1.50864      .   S
    P29    O385      1.62078      .   S
    P29    C229      1.84352      .   S
    P29    O381      1.50854      .   S
    O294   C164      1.27674      .   S
    O295   C165      1.27686      .   S
    H136   C236      1.09014      .   S
    H137   C237      1.09029      .   S
    H124   C228      1.09707      .   S
    H125   C229      1.09708      .   S
    O371   C223      1.27431      .   S
    O370   C222      1.27440      .   S
    C236   C234      1.40236      .   S
    C237   C235      1.40206      .   S
    H64    N260      1.07445  1_565   S
    H65    N261      1.07454  1_565   S
    O384   H116      0.97734      .   S
    O385   H117      0.97738      .   S
    C228   N268      1.50864      .   S
    C229   N269      1.50901      .   S
    N260   C172      1.50861      .   S
    N261   C173      1.50869      .   S
    C186   C178      1.39411  1_565   S
    C186   N262      1.34781      .   S
    C187   C179      1.39422  1_565   S
    C187   N263      1.34792      .   S
    C178   C180      1.40192      .   S
    C179   C181      1.40187      .   S
    N270   H122      1.07174      .   S
    N270   C242      1.34778      .   S
    N271   H123      1.07176      .   S
    N271   C243      1.34820      .   S
    C166   C164      1.54031      .   S
    C166   O298      1.27445      .   S
    C167   C165      1.54037      .   S
    C167   O299      1.27433      .   S
    H60    O312      0.97734      .   S
    H61    O313      0.97740      .   S
    H66    N262      1.07152      .   S
    H67    N263      1.07179      .   S
    C220   C222      1.54041      .   S
    C220   O366      1.27666      .   S
    C221   C223      1.54041      .   S
    C221   O367      1.27654      .   S
    C164   O292      1.25567      .   S
    C165   O293      1.25567      .   S
    C222   O368      1.26101      .   S
    C223   O369      1.26114      .   S
    N262   C184      1.35173      .   S
    N263   C185      1.35175      .   S
    C234   C242      1.39389      .   S
    C234   C232      1.50667      .   S
    C235   C243      1.39397      .   S
    C235   C233      1.50698      .   S
    O308   P20       1.50862      .   S
    O309   P21       1.50861      .   S
    C242   H142      1.09335      .   S
    C243   H143      1.09315      .   S
    N268   H120      1.07406      .   S
    N268   C232      1.52418      .   S
    N268   C230      1.50078      .   S
    N269   H121      1.07428      .   S
    N269   C233      1.52429      .   S
    N269   C231      1.50052      .   S
    C172   H68       1.09709      .   S
    C172   P20       1.84345      .   S
    C172   H70       1.09536      .   S
    C173   H69       1.09713      .   S
    C173   P21       1.84364      .   S
    C173   H71       1.09544      .   S
    O312   P20       1.62083      .   S
    O313   P21       1.62078      .   S
    C180   H80       1.09023      .   S
    C180   C182      1.39511      .   S
    C181   H81       1.09027      .   S
    C181   C183      1.39529      .   S
    O299   Y1        2.35368      .   S
    O298   Y0        2.35640      .   S
    O366   Y10       2.42021      .   S
    O367   Y11       2.42407      .   S
    H132   C232      1.09634      .   S
    H133   C233      1.09637      .   S
    P20    O310      1.50549      .   S
    P21    O311      1.50567      .   S
    O292   Y0        2.34440      .   S
    O293   Y1        2.34584      .   S
    C232   H134      1.09676      .   S
    C233   H135      1.09676      .   S
    H129   C231      1.09581      .   S
    H128   C230      1.09634      .   S
    C184   C182      1.38596  1_565   S
    C184   H84       1.08788      .   S
    C185   C183      1.38597  1_565   S
    C185   H85       1.08800      .   S
    C182   H82       1.08840      .   S
    C183   H83       1.08838      .   S
    C230   H130      1.09683      .   S
    C230   P30       1.85411      .   S
    C231   H131      1.09700      .   S
    C231   P31       1.85677      .   S
    O395   C245      1.26491      .   S
    O394   C244      1.26576  1_455   S
    O290   Y0        2.37102      .   S
    O290   C162      1.26488      .   S
    O291   Y1        2.37287      .   S
    O291   C163      1.26475      .   S
    O310   Y6        2.25443      .   S
    O311   Y7        2.25493      .   S
    Y0     O280      2.16634      .   S
    Y0     O396      2.34143      .   S
    Y0     O284      2.39784      .   S
    Y1     O281      2.16723      .   S
    Y1     O397      2.34689      .   S
    Y1     O285      2.39580      .   S
    O376   Y10       2.35433      .   S
    O376   C226      1.27374      .   S
    O377   Y11       2.35428      .   S
    O377   C227      1.27398      .   S
    Y10    O386      2.36906      .   S
    Y10    O342      2.36208      .   S
    Y10    O374      2.43144      .   S
    Y10    O346      2.25416      .   S
    Y11    O387      2.37058      .   S
    Y11    O343      2.36673      .   S
    Y11    O375      2.42654      .   S
    Y11    O347      2.25481      .   S
    O392   C245      1.27040      .   S
    O392   Y12       2.39515      .   S
    O393   C244      1.26970      .   S
    O393   Y13       2.39905      .   S
    O337   C196      1.28252  1_655   S
    C245   C247      1.54672      .   S
    C244   C246      1.54635  1_655   S
    O336   C197      1.28329      .   S
    P30    O386      1.50366      .   S
    P30    O390      1.58840      .   S
    P30    O388      1.51731      .   S
    P31    O387      1.50392      .   S
    P31    O391      1.58804      .   S
    P31    O389      1.51683      .   S
    O289   C163      1.26931      .   S
    O289   Y13       2.34357      .   S
    O288   C162      1.26941      .   S
    O288   Y12       2.34761      .   S
    C163   C161      1.54593      .   S
    C162   C160      1.54668      .   S
    H119   O391      1.02096      .   S
    H118   O390      1.01992      .   S
    C226   O378      1.25764      .   S
    C226   C224      1.54330      .   S
    O280   P18       1.51687      .   S
    C196   O338      1.25374      .   S
    C196   C199      1.54321  1_455   S
    C227   O379      1.25762      .   S
    C227   C225      1.54426      .   S
    C197   O339      1.25394      .   S
    C197   C198      1.54471      .   S
    O281   P19       1.51733      .   S
    O342   C198      1.25794      .   S
    O343   C199      1.25761      .   S
    O375   C225      1.25393      .   S
    O374   C224      1.25360      .   S
    O338   Y6        2.42761      .   S
    O339   Y7        2.42947      .   S
    O378   Y6        2.36676      .   S
    O379   Y7        2.36345      .   S
    O388   Y12       2.16698      .   S
    C225   O373      1.28314      .   S
    C224   O372      1.28305      .   S
    C198   O341      1.27405      .   S
    O389   Y13       2.16613      .   S
    C199   O340      1.27345  1_655   S
    O283   H35       1.02053  1_565   S
    O283   P19       1.58810      .   S
    O282   H34       1.02162  1_565   S
    O282   P18       1.58822      .   S
    C247   O397      1.26934      .   S
    C247   O398      1.26261      .   S
    C246   O396      1.26904      .   S
    C246   O399      1.26459  1_455   S
    O279   P19       1.50389  1_545   S
    O279   Y7        2.37141      .   S
    O278   P18       1.50422  1_545   S
    O278   Y6        2.36991      .   S
    P18    C146      1.85556      .   S
    P19    C147      1.85422      .   S
    C160   O284      1.27030      .   S
    C160   O286      1.26492      .   S
    C161   O285      1.27034      .   S
    C161   O287      1.26489      .   S
    Y6     O340      2.35559      .   S
    Y6     O330      2.42516      .   S
    Y7     O341      2.35378      .   S
    Y7     O331      2.42316      .   S
    Y12    O398      2.37205      .   S
    Y12    O400      2.34531      .   S
    Y12    O406      2.35363      .   S
    Y13    O399      2.37227      .   S
    Y13    O401      2.34246      .   S
    Y13    O407      2.35612      .   S
    O346   P24       1.50711      .   S
    O347   P25       1.50563      .   S
    H110   C210      1.08840      .   S
    H111   C211      1.08832      .   S
    H50    C148      1.09670      .   S
    H51    C149      1.09673      .   S
    H112   C212      1.08806      .   S
    H113   C213      1.08795      .   S
    H46    C146      1.09692      .   S
    H47    C147      1.09685      .   S
    C146   H44       1.09631      .   S
    C146   N256      1.50115      .   S
    C147   H45       1.09628      .   S
    C147   N257      1.49970      .   S
    C210   C212      1.38580      .   S
    C210   C208      1.39488      .   S
    C211   C213      1.38584      .   S
    C211   C209      1.39519      .   S
    H59    C158      1.09333      .   S
    H58    C159      1.09322  1_455   S
    H99    C201      1.09513      .   S
    H98    C200      1.09541      .   S
    O332   C194      1.26122      .   S
    O333   C195      1.26090      .   S
    C212   N266      1.35174      .   S
    C213   N267      1.35162      .   S
    C148   H48       1.09636      .   S
    C148   N256      1.52442      .   S
    C148   C150      1.50695      .   S
    O400   C248      1.25568      .   S
    C149   H49       1.09637      .   S
    C149   N257      1.52377      .   S
    C149   C151      1.50657      .   S
    O401   C249      1.25578      .   S
    P24    O348      1.62073      .   S
    P24    C200      1.84363      .   S
    P24    O344      1.50869      .   S
    P25    O349      1.62056      .   S
    P25    C201      1.84334      .   S
    P25    O345      1.50851      .   S
    O330   C192      1.27676      .   S
    O331   C193      1.27694      .   S
    H108   C208      1.09018      .   S
    H109   C209      1.09028      .   S
    H96    C200      1.09711      .   S
    H97    C201      1.09678      .   S
    O407   C251      1.27445      .   S
    O406   C250      1.27432      .   S
    C208   C207      1.40222  1_455   S
    C209   C206      1.40206      .   S
    H36    N256      1.07468  1_545   S
    H37    N257      1.07451  1_545   S
    O348   H88       0.97733      .   S
    O349   H89       0.97698      .   S
    C200   N264      1.50894      .   S
    C201   N265      1.50991      .   S
    N256   C144      1.50878      .   S
    N257   C145      1.50999      .   S
    C159   C150      1.39408  1_645   S
    C159   N259      1.34784      .   S
    C158   C151      1.39421  1_545   S
    C158   N258      1.34788      .   S
    C150   C153      1.40153  1_455   S
    C151   C152      1.40197      .   S
    N266   H94       1.07192      .   S
    N266   C214      1.34797      .   S
    N267   H95       1.07169      .   S
    N267   C215      1.34795      .   S
    C194   C192      1.54031      .   S
    C194   O334      1.27428      .   S
    C195   C193      1.54037      .   S
    C195   O335      1.27438      .   S
    H32    O276      0.97740      .   S
    H33    O277      0.97745      .   S
    H38    N258      1.07193      .   S
    H39    N259      1.07162      .   S
    C248   C250      1.54037      .   S
    C248   O402      1.27676      .   S
    C249   C251      1.54047      .   S
    C249   O403      1.27649      .   S
    C192   O328      1.25575      .   S
    C193   O329      1.25576      .   S
    C251   O405      1.26112      .   S
    C250   O404      1.26036      .   S
    N258   C156      1.35170      .   S
    N259   C157      1.35176      .   S
    C207   C214      1.39392  1_655   S
    C207   C205      1.50695      .   S
    C206   C215      1.39393      .   S
    C206   C204      1.50681      .   S
    O272   P16       1.50859      .   S
    O273   P17       1.50864      .   S
    C214   H115      1.09305  1_455   S
    C215   H114      1.09322      .   S
    N264   H92       1.07441      .   S
    N264   C204      1.52433      .   S
    N264   C202      1.50116      .   S
    N265   H93       1.07413      .   S
    N265   C205      1.52434      .   S
    N265   C203      1.50128      .   S
    C144   H40       1.09716      .   S
    C144   P16       1.84369      .   S
    C144   H42       1.09548      .   S
    C145   H41       1.09709      .   S
    C145   P17       1.84352      .   S
    C145   H43       1.09539      .   S
    O276   P16       1.62069      .   S
    O277   P17       1.62080      .   S
    C153   H53       1.09034      .   S
    C153   C155      1.39541      .   S
    C152   H52       1.09023      .   S
    C152   C154      1.39514      .   S
    O334   Y4        2.35468      .   S
    O335   Y5        2.35406      .   S
    O402   Y14       2.42402      .   S
    O403   Y15       2.42212      .   S
    H105   C205      1.09637      .   S
    H104   C204      1.09633      .   S
    P16    O274      1.50451      .   S
    P17    O275      1.50562      .   S
    O328   Y4        2.34553      .   S
    O329   Y5        2.34659      .   S
    C205   H107      1.09597      .   S
    C204   H106      1.09672      .   S
    H100   C202      1.09635      .   S
    H101   C203      1.09637      .   S
    C157   C155      1.38601  1_545   S
    C157   H57       1.08802      .   S
    C156   C154      1.38602  1_545   S
    C156   H56       1.08802      .   S
    C155   H55       1.08833      .   S
    C154   H54       1.08832      .   S
    C202   H102      1.09689      .   S
    C202   P26       1.85549      .   S
    C203   H103      1.09687      .   S
    C203   P27       1.85557      .   S
    O358   C216      1.26507      .   S
    O359   C217      1.26507      .   S
    O326   Y4        2.37303      .   S
    O326   C191      1.26445  1_455   S
    O327   Y5        2.37336      .   S
    O327   C190      1.26490      .   S
    Y4     O316      2.16667      .   S
    Y5     O317      2.16687      .   S
    O412   Y14       2.35584      .   S
    O412   C255      1.27400      .   S
    O413   Y15       2.35568      .   S
    O413   C254      1.27369  1_655   S
    Y14    O350      2.36949      .   S
    Y14    O306      2.36540      .   S
    Y14    O410      2.42792      .   S
    Y15    O351      2.37027      .   S
    Y15    O307      2.36495      .   S
    Y15    O411      2.42724      .   S
    O356   C216      1.27025      .   S
    O357   C217      1.27021      .   S
    O300   C168      1.28287      .   S
    O301   C169      1.28286      .   S
    P26    O350      1.50406      .   S
    P26    O354      1.58780      .   S
    P27    O351      1.50401      .   S
    P27    O355      1.58783      .   S
    O325   C191      1.26924      .   S
    O324   C190      1.26926      .   S
    H90    O354      1.02120      .   S
    H91    O355      1.02117      .   S
    O286   Y12       2.40914      .   S
    O287   Y13       2.41222      .   S
    O296   Y2        2.47179      .   S
    O297   Y3        2.46932      .   S
    O300   Y14       2.42956      .   S
    O301   Y15       2.42950      .   S
    O322   Y8        2.41360      .   S
    O323   Y9        2.41497      .   S
    O332   Y6        2.46867      .   S
    O333   Y7        2.46971      .   S
    O336   Y10       2.43453      .   S
    O337   Y11       2.42764      .   S
    O358   Y4        2.40869      .   S
    O359   Y5        2.40825      .   S
    O368   Y10       2.47133      .   S
    O369   Y11       2.47034      .   S
    O372   Y6        2.42763      .   S
    O373   Y7        2.43273      .   S
    O394   Y0        2.41200      .   S
    O395   Y1        2.40828      .   S
    O404   Y14       2.46925      .   S
    O405   Y15       2.47070      .   S
    O408   Y2        2.43133      .   S
    O409   Y3        2.43081      .   S
