# CIF file generated by openbabel 2.4.90, see http://openbabel.sf.net
data_I
_chemical_name_common ''
_cell_length_a 17.293
_cell_length_b 13.056
_cell_length_c 15.041
_cell_angle_alpha 64.208
_cell_angle_beta 83.189
_cell_angle_gamma 75.681
_space_group_name_H-M_alt 'P 1'
_space_group_name_Hall 'P 1'
loop_
    _symmetry_equiv_pos_as_xyz
    x,y,z
loop_
    _atom_site_label
    _atom_site_type_symbol
    _atom_site_fract_x
    _atom_site_fract_y
    _atom_site_fract_z
    _atom_site_occupancy
    Lv0     Lv   0.29180   0.57874   0.00041   1.000
    Lv1     Lv   0.55887   0.42334   0.56989   1.000
    Lv2     Lv   0.05886   0.42334   0.57014   1.000
    Lv3     Lv   0.79182   0.57874   0.00041   1.000
    Lv4     Lv   0.30969   0.99104   0.43046   1.000
    Lv5     Lv   0.54216   0.57901   0.99983   1.000
    Lv6     Lv   0.80969   0.99104   0.43046   1.000
    Lv7     Lv   0.04216   0.57901   0.99983   1.000
