# CIF file generated by openbabel 2.4.90, see http://openbabel.sf.net
data_I
_chemical_name_common ''
_cell_length_a 17.293
_cell_length_b 13.056
_cell_length_c 15.041
_cell_angle_alpha 64.208
_cell_angle_beta 83.189
_cell_angle_gamma 75.681
_space_group_name_H-M_alt 'P 1'
_space_group_name_Hall 'P 1'
loop_
    _symmetry_equiv_pos_as_xyz
    x,y,z
loop_
    _atom_site_label
    _atom_site_type_symbol
    _atom_site_fract_x
    _atom_site_fract_y
    _atom_site_fract_z
    _atom_site_occupancy
    H0      H    0.02280   0.06282   0.48883   1.000
    H1      H    0.52280   0.06283   0.48882   1.000
    H2      H    0.15130   0.04297   0.39855   1.000
    H3      H    0.65130   0.04298   0.39850   1.000
    H4      H    0.27529   0.00000   0.64659   1.000
    H5      H    0.77530   0.00000   0.64659   1.000
    H6      H    0.14537   0.02676   0.73588   1.000
    H7      H    0.64537   0.02675   0.73588   1.000
    H8      H    0.35154   0.99657   0.51270   1.000
    H9      H    0.85154   0.99657   0.51270   1.000
    H10     H    0.26581   0.00000   0.34078   1.000
    H11     H    0.76582   0.00000   0.34078   1.000
    H12     H    0.34726   0.00000   0.19730   1.000
    H13     H    0.84727   0.00000   0.19730   1.000
    H14     H    0.48086   0.98093   0.12175   1.000
    H15     H    0.98088   0.98094   0.12175   1.000
    H16     H    0.09449   0.87767   0.38494   1.000
    H17     H    0.59451   0.87767   0.38494   1.000
    H18     H    0.46614   0.91214   0.47080   1.000
    H19     H    0.96615   0.91214   0.47080   1.000
    H20     H    0.21025   0.25142   0.94451   1.000
    H21     H    0.71026   0.25142   0.94451   1.000
    H22     H    0.25639   0.43685   0.87917   1.000
    H23     H    0.75640   0.43685   0.87917   1.000
    H24     H    0.25885   0.40747   0.17628   1.000
    H25     H    0.75886   0.40747   0.17628   1.000
    H26     H    0.21242   0.22306   0.23945   1.000
    H27     H    0.71243   0.22306   0.23945   1.000
    H28     H    0.29592   0.58161   0.90010   1.000
    H29     H    0.79593   0.58161   0.90010   1.000
    H30     H    0.29116   0.57255   0.10880   1.000
    H31     H    0.79117   0.57255   0.10884   1.000
    H32     H    0.34432   0.72827   0.83299   1.000
    H33     H    0.84434   0.72827   0.83299   1.000
    H34     H    0.38318   0.91929   0.76518   1.000
    H35     H    0.88320   0.91929   0.76518   1.000
    H36     H    0.35341   0.93286   0.03785   1.000
    H37     H    0.85343   0.93286   0.03780   1.000
    H38     H    0.31455   0.74276   0.11828   1.000
    H39     H    0.81457   0.74275   0.11828   1.000
    H40     H    0.27326   0.55170   0.51173   1.000
    H41     H    0.77327   0.55169   0.51170   1.000
    H42     H    0.39978   0.44378   0.60275   1.000
    H43     H    0.89979   0.44378   0.60275   1.000
    H44     H    0.02927   0.65041   0.35184   1.000
    H45     H    0.52928   0.65041   0.35180   1.000
    H46     H    0.40129   0.75648   0.26190   1.000
    H47     H    0.90130   0.75648   0.26190   1.000
    H48     H    0.10247   0.50848   0.48717   1.000
    H49     H    0.60248   0.50848   0.48717   1.000
    H50     H    0.01292   0.34537   0.66048   1.000
    H51     H    0.51293   0.34535   0.66047   1.000
    H52     H    0.09137   0.21785   0.80396   1.000
    H53     H    0.59138   0.21785   0.80396   1.000
    H54     H    0.22348   0.10694   0.88015   1.000
    H55     H    0.72349   0.10695   0.88015   1.000
    H56     H    0.34261   0.26614   0.61711   1.000
    H57     H    0.84262   0.26615   0.61711   1.000
    H58     H    0.21604   0.38486   0.53075   1.000
    H59     H    0.71606   0.38485   0.53070   1.000
    H60     H    0.46064   0.19545   0.05561   1.000
    H61     H    0.96065   0.19545   0.05561   1.000
    H62     H    0.00943   0.31361   0.12005   1.000
    H63     H    0.50944   0.31361   0.12005   1.000
    H64     H    0.00607   0.58735   0.82460   1.000
    H65     H    0.50608   0.58735   0.82464   1.000
    H66     H    0.45725   0.46787   0.76233   1.000
    H67     H    0.95726   0.46787   0.76233   1.000
    H68     H    0.05133   0.47815   0.09823   1.000
    H69     H    0.55134   0.47814   0.09823   1.000
    H70     H    0.03459   0.68645   0.89343   1.000
    H71     H    0.53459   0.68645   0.89343   1.000
    H72     H    0.09815   0.55758   0.16470   1.000
    H73     H    0.59815   0.55758   0.16476   1.000
    H74     H    0.14089   0.67694   0.23277   1.000
    H75     H    0.64091   0.67694   0.23277   1.000
    H76     H    0.10476   0.96959   0.96552   1.000
    H77     H    0.60478   0.96959   0.96551   1.000
    H78     H    0.06064   0.86440   0.88525   1.000
    H79     H    0.56065   0.86440   0.88525   1.000
    C80     C    0.07598   0.04371   0.61874   1.000
    C81     C    0.57598   0.04376   0.61872   1.000
    C82     C    0.07881   0.04902   0.52300   1.000
    C83     C    0.57882   0.04900   0.52305   1.000
    C84     C    0.15095   0.03763   0.47300   1.000
    C85     C    0.65095   0.03765   0.47299   1.000
    C86     C    0.22345   0.02032   0.51760   1.000
    C87     C    0.72346   0.02029   0.51761   1.000
    C88     C    0.21996   0.01799   0.61265   1.000
    C89     C    0.71997   0.01801   0.61264   1.000
    C90     C    0.14754   0.02887   0.66250   1.000
    C91     C    0.64755   0.02884   0.66255   1.000
    C92     C    0.30142   0.00000   0.47126   1.000
    C93     C    0.80143   0.00000   0.47125   1.000
    N94     N    0.87016   0.93369   0.89839   1.000
    N95     N    0.28886   0.18232   0.75211   1.000
    N96     N    0.78887   0.18232   0.75211   1.000
    N97     N    0.12515   0.82752   0.10216   1.000
    C98     C    0.31563   0.99256   0.38440   1.000
    C99     C    0.81564   0.99255   0.38441   1.000
    C100    C    0.39410   0.97092   0.34091   1.000
    C101    C    0.89410   0.97091   0.34091   1.000
    C102    C    0.40068   0.98807   0.24126   1.000
    C103    C    0.90069   0.98808   0.24120   1.000
    C104    C    0.47506   0.96686   0.19900   1.000
    C105    C    0.97507   0.96685   0.19903   1.000
    C106    C    0.03825   0.91043   0.34590   1.000
    C107    C    0.53827   0.91043   0.34589   1.000
    C108    C    0.46618   0.93032   0.39293   1.000
    C109    C    0.96619   0.93033   0.39293   1.000
    C110    C    0.20835   0.22555   0.09608   1.000
    C111    C    0.70836   0.22555   0.09608   1.000
    C112    C    0.22086   0.28645   0.99452   1.000
    C113    C    0.72087   0.28645   0.99452   1.000
    C114    C    0.24635   0.39050   0.95836   1.000
    C115    C    0.74636   0.39050   0.95836   1.000
    C116    C    0.26047   0.43692   0.02237   1.000
    C117    C    0.76049   0.43692   0.02237   1.000
    C118    C    0.24772   0.37482   0.12457   1.000
    C119    C    0.74773   0.37482   0.12457   1.000
    C120    C    0.22196   0.27126   0.16056   1.000
    C121    C    0.72198   0.27126   0.16056   1.000
    C122    C    0.28709   0.54600   0.98019   1.000
    C123    C    0.78710   0.54600   0.98019   1.000
    C124    C    0.30058   0.60594   0.02898   1.000
    C125    C    0.80059   0.60594   0.02898   1.000
    C126    C    0.32543   0.71639   0.98305   1.000
    C127    C    0.82544   0.71639   0.98305   1.000
    C128    C    0.34536   0.76962   0.88186   1.000
    C129    C    0.84537   0.76962   0.88186   1.000
    C130    C    0.36716   0.87585   0.84310   1.000
    C131    C    0.86717   0.87586   0.84310   1.000
    C132    C    0.35154   0.88380   0.99546   1.000
    C133    C    0.85155   0.88380   0.99540   1.000
    C134    C    0.32980   0.77688   0.03979   1.000
    C135    C    0.82981   0.77688   0.03979   1.000
    C136    C    0.32932   0.65917   0.38046   1.000
    C137    C    0.82934   0.65913   0.38044   1.000
    C138    C    0.33004   0.57112   0.47707   1.000
    C139    C    0.83005   0.57114   0.47708   1.000
    C140    C    0.40105   0.51094   0.52754   1.000
    C141    C    0.90107   0.51092   0.52750   1.000
    C142    C    0.47453   0.53694   0.48229   1.000
    C143    C    0.97454   0.53697   0.48230   1.000
    C144    C    0.47316   0.62738   0.38629   1.000
    C145    C    0.97318   0.62736   0.38628   1.000
    C146    C    0.40184   0.68700   0.33000   1.000
    C147    C    0.90185   0.68703   0.33601   1.000
    C148    C    0.05145   0.47367   0.52900   1.000
    C149    C    0.55146   0.47368   0.52904   1.000
    C150    C    0.06370   0.37841   0.61664   1.000
    C151    C    0.56372   0.37840   0.61664   1.000
    C152    C    0.14123   0.31407   0.66048   1.000
    C153    C    0.64124   0.31405   0.66047   1.000
    C154    C    0.14573   0.23225   0.76021   1.000
    C155    C    0.64575   0.23226   0.76021   1.000
    C156    C    0.21924   0.16957   0.80277   1.000
    C157    C    0.71925   0.16956   0.80277   1.000
    C158    C    0.28554   0.25968   0.65599   1.000
    C159    C    0.78555   0.25968   0.65599   1.000
    C160    C    0.21442   0.32568   0.60866   1.000
    C161    C    0.71443   0.32569   0.60866   1.000
    C162    C    0.45563   0.32436   0.90498   1.000
    C163    C    0.95564   0.32436   0.90498   1.000
    C164    C    0.47053   0.28140   0.00582   1.000
    C165    C    0.97055   0.28140   0.00582   1.000
    C166    C    0.99750   0.34818   0.04147   1.000
    C167    C    0.49751   0.34818   0.04147   1.000
    C168    C    0.01045   0.45990   0.97771   1.000
    C169    C    0.51046   0.45991   0.97771   1.000
    C170    C    0.49549   0.50218   0.87621   1.000
    C171    C    0.99550   0.50218   0.87621   1.000
    C172    C    0.46841   0.43563   0.84072   1.000
    C173    C    0.96843   0.43563   0.84072   1.000
    C174    C    0.03828   0.52577   0.01945   1.000
    C175    C    0.53829   0.52577   0.01944   1.000
    C176    C    0.04834   0.63683   0.97184   1.000
    C177    C    0.54835   0.63683   0.97184   1.000
    C178    C    0.07524   0.69950   0.01754   1.000
    C179    C    0.57524   0.69951   0.01754   1.000
    C180    C    0.09847   0.64852   0.11715   1.000
    C181    C    0.59849   0.64852   0.11714   1.000
    C182    C    0.12270   0.71376   0.15592   1.000
    C183    C    0.62271   0.71376   0.15592   1.000
    C184    C    0.10318   0.87772   0.00000   1.000
    C185    C    0.60319   0.87772   0.00000   1.000
    C186    C    0.07852   0.81769   0.96237   1.000
    C187    C    0.57854   0.81769   0.96237   1.000
    N188    N    0.04360   0.92848   0.24986   1.000
    N189    N    0.54362   0.92846   0.24986   1.000
    N190    N    0.37014   0.93369   0.89839   1.000
    N191    N    0.62517   0.82752   0.10215   1.000
loop_
    _geom_bond_atom_site_label_1
    _geom_bond_atom_site_label_2
    _geom_bond_distance
    _geom_bond_site_symmetry_2
    _ccdc_geom_bond_type
    C185   N191      1.44003      .   S
    C185   C187      1.31339  1_554   S
    C185   H77       1.08628  1_554   S
    C184   N97       1.44012      .   S
    C184   C186      1.31344  1_554   S
    C184   H76       1.08628  1_554   S
    C165   C166      1.38991      .   S
    C165   H61       1.08757      .   S
    C165   C163      1.40089  1_554   S
    C164   C167      1.39017      .   S
    C164   H60       1.08758      .   S
    C164   C162      1.40086  1_554   S
    C179   C181      1.41125      .   S
    C179   C187      1.41091  1_554   S
    C179   C177      1.45323  1_554   S
    C178   C180      1.41131      .   S
    C178   C186      1.41092  1_554   S
    C178   C176      1.45327  1_554   S
    C175   H69       1.09306      .   S
    C175   C177      1.35539  1_554   S
    C175   C169      1.45300  1_554   S
    C174   H68       1.09291      .   S
    C174   C176      1.35539  1_554   S
    C174   C168      1.45310  1_554   S
    C117   C119      1.41153      .   S
    C117   C115      1.41093  1_554   S
    C117   C123      1.45297  1_554   S
    C116   C118      1.41153      .   S
    C116   C114      1.41093  1_554   S
    C116   C122      1.45298  1_554   S
    C125   H31       1.09200      .   S
    C125   C123      1.35505  1_554   S
    C125   C127      1.45275  1_554   S
    C124   H30       1.09145      .   S
    C124   C122      1.35506  1_554   S
    C124   C126      1.45276  1_554   S
    H37    C133      1.09027  1_554   S
    H36    C132      1.09016  1_554   S
    C134   H38       1.09010      .   S
    C134   C126      1.41036  1_554   S
    C134   C132      1.38739  1_554   S
    C135   H39       1.09010      .   S
    C135   C127      1.41036  1_554   S
    C135   C133      1.38740  1_554   S
    C166   H62       1.09124  1_655   S
    C166   C168      1.41102  1_654   S
    C167   H63       1.09123      .   S
    C167   C169      1.41102  1_554   S
    C111   C121      1.40694      .   S
    C111   C113      1.40079  1_554   S
    C110   C120      1.40694      .   S
    C110   C112      1.40079  1_554   S
    N191   C183      1.35639      .   S
    N97    C182      1.35636      .   S
    C181   C183      1.38136      .   S
    C181   H73       1.08860      .   S
    C180   C182      1.38129      .   S
    C180   H72       1.08842      .   S
    H15    C105      1.09108      .   S
    H14    C104      1.09067      .   S
    C119   C121      1.38688      .   S
    C119   H25       1.09001      .   S
    C118   C120      1.38688      .   S
    C118   H24       1.09001      .   S
    C183   H75       1.09275      .   S
    C182   H74       1.09272      .   S
    C121   H27       1.08920      .   S
    C120   H26       1.08920      .   S
    H13    C103      1.13916  1_545   S
    H12    C102      1.13967  1_545   S
    C104   C102      1.38504      .   S
    C104   N189      1.35257      .   S
    C105   C103      1.38448      .   S
    C105   N188      1.35198  1_655   S
    C103   C101      1.41138      .   S
    C102   C100      1.41057      .   S
    N188   C106      1.35414      .   S
    N189   C107      1.35404      .   S
    H47    C147      1.08794      .   S
    H46    C146      1.03038      .   S
    C146   C136      1.42840      .   S
    C146   C144      1.42944      .   S
    C147   C137      1.40244      .   S
    C147   C145      1.39044      .   S
    H10    C98       1.10427  1_545   S
    H11    C99       1.10426  1_545   S
    C101   C99       1.45243      .   S
    C101   C109      1.41095      .   S
    C100   C98       1.45237      .   S
    C100   C108      1.41093      .   S
    C107   H17       1.08847      .   S
    C107   C108      1.38298      .   S
    C106   H16       1.08841      .   S
    C106   C109      1.38259  1_455   S
    H45    C144      1.09112      .   S
    H44    C145      1.09059  1_455   S
    C137   C139      1.40600      .   S
    C136   C138      1.40601      .   S
    C98    C92       1.34131  1_565   S
    C99    C93       1.34109  1_565   S
    C145   C143      1.41075      .   S
    C144   C142      1.41075      .   S
    C108   H18       1.08908      .   S
    C109   H19       1.08905      .   S
    H3     C85       1.09131      .   S
    H2     C84       1.09061      .   S
    C93    H9        1.10747  1_545   S
    C93    C87       1.46128      .   S
    C92    H8        1.10733  1_545   S
    C92    C86       1.46124      .   S
    C85    C87       1.41447      .   S
    C85    C83       1.38842      .   S
    C84    C86       1.41446      .   S
    C84    C82       1.38810      .   S
    C138   H40       1.08944      .   S
    C138   C140      1.38800      .   S
    C139   H41       1.08934      .   S
    C139   C141      1.38781      .   S
    C142   C140      1.41433      .   S
    C142   C149      1.45581      .   S
    C143   C141      1.41422      .   S
    C143   C148      1.45531  1_655   S
    H48    C148      1.09488      .   S
    H49    C149      1.09504      .   S
    H1     C83       1.08951      .   S
    H0     C82       1.08913      .   S
    C86    C88       1.41105      .   S
    C87    C89       1.41100      .   S
    C82    C80       1.40674      .   S
    C83    C81       1.40609      .   S
    C141   H43       1.09097      .   S
    C140   H42       1.09064      .   S
    C148   C150      1.35593      .   S
    C149   C151      1.35573      .   S
    H59    C161      1.08955      .   S
    H58    C160      1.08903      .   S
    C161   C159      1.38263      .   S
    C161   C153      1.41090      .   S
    C160   C158      1.38260      .   S
    C160   C152      1.41090      .   S
    C89    H5        1.06385      .   S
    C89    C91       1.39063      .   S
    C88    H4        1.06379      .   S
    C88    C90       1.39031      .   S
    C150   C152      1.45195      .   S
    C150   H50       1.09308      .   S
    C151   C153      1.45189      .   S
    C151   H51       1.09304      .   S
    H56    C158      1.08834      .   S
    H57    C159      1.08836      .   S
    C81    C91       1.40230      .   S
    C80    C90       1.40198      .   S
    C158   N95       1.35425      .   S
    C159   N96       1.35418      .   S
    C153   C155      1.41049      .   S
    C152   C154      1.41048      .   S
    C90    H6        1.08836      .   S
    C91    H7        1.08776      .   S
    N95    C156      1.35244      .   S
    N96    C157      1.35246      .   S
    C155   C157      1.38487      .   S
    C155   H53       1.08873      .   S
    C154   C156      1.38484      .   S
    C154   H52       1.08868      .   S
    H67    C173      1.08930      .   S
    H66    C172      1.08929      .   S
    H34    C130      1.09284      .   S
    H35    C131      1.09283      .   S
    C156   H54       1.09132      .   S
    C157   H55       1.09128      .   S
    H64    C171      1.09010  1_455   S
    H65    C170      1.09010      .   S
    H33    C129      1.08871      .   S
    H32    C128      1.08871      .   S
    C172   C170      1.38679      .   S
    C172   C162      1.40705      .   S
    C173   C171      1.38678      .   S
    C173   C163      1.40703      .   S
    C131   C129      1.38154      .   S
    C131   N94       1.35658      .   S
    C130   C128      1.38153      .   S
    C130   N190      1.35660      .   S
    C170   C169      1.41145      .   S
    C171   C168      1.41137  1_655   S
    H22    C114      1.09122      .   S
    H23    C115      1.09122      .   S
    C128   C126      1.41132      .   S
    C129   C127      1.41131      .   S
    H79    C187      1.09060      .   S
    H78    C186      1.09055      .   S
    H71    C177      1.09208      .   S
    H70    C176      1.09204      .   S
    N94    C133      1.34986      .   S
    N190   C132      1.35062      .   S
    H29    C123      1.09304      .   S
    H28    C122      1.09304      .   S
    H21    C113      1.08737      .   S
    H20    C112      1.08737      .   S
    C114   C112      1.38989      .   S
    C115   C113      1.38988      .   S
