# CIF file generated by openbabel 2.4.90, see http://openbabel.sf.net
data_I
_chemical_name_common ''
_cell_length_a 17.293
_cell_length_b 13.056
_cell_length_c 15.041
_cell_angle_alpha 64.208
_cell_angle_beta 83.189
_cell_angle_gamma 75.681
_space_group_name_H-M_alt 'P 1'
_space_group_name_Hall 'P 1'
loop_
    _symmetry_equiv_pos_as_xyz
    x,y,z
loop_
    _atom_site_label
    _atom_site_type_symbol
    _atom_site_fract_x
    _atom_site_fract_y
    _atom_site_fract_z
    _atom_site_occupancy
    C0      C    0.99715   0.05455   0.67100   1.000
    C1      C    0.49716   0.05452   0.67180   1.000
    C2      C    0.18318   0.11158   0.13800   1.000
    C3      C    0.68320   0.11158   0.13803   1.000
    C4      C    0.25165   0.72166   0.32720   1.000
    C5      C    0.75166   0.72167   0.32721   1.000
    C6      C    0.42867   0.25385   0.86332   1.000
    C7      C    0.92869   0.25385   0.86332   1.000
