# CIF file generated by openbabel 2.4.90, see http://openbabel.sf.net
data_I
_chemical_name_common ''
_cell_length_a 17.293
_cell_length_b 13.056
_cell_length_c 15.041
_cell_angle_alpha 64.208
_cell_angle_beta 83.189
_cell_angle_gamma 75.681
_space_group_name_H-M_alt 'P 1'
_space_group_name_Hall 'P 1'
loop_
    _symmetry_equiv_pos_as_xyz
    x,y,z
loop_
    _atom_site_label
    _atom_site_type_symbol
    _atom_site_fract_x
    _atom_site_fract_y
    _atom_site_fract_z
    _atom_site_occupancy
    N0      N    0.29180   0.57874   0.00041   1.000
    N1      N    0.55887   0.42334   0.56989   1.000
    N2      N    0.05886   0.42334   0.57014   1.000
    N3      N    0.79182   0.57874   0.00041   1.000
    N4      N    0.30969   0.99104   0.43046   1.000
    N5      N    0.54216   0.57901   0.99983   1.000
    N6      N    0.80969   0.99104   0.43046   1.000
    N7      N    0.04216   0.57901   0.99983   1.000
    Zr8     Zr   0.19719   0.91000   0.22305   1.000
    O9      O    0.22049   0.14183   0.14089   1.000
    O10     O    0.14392   0.81705   0.14695   1.000
    O11     O    0.07562   0.93267   0.27307   1.000
    O12     O    0.31093   0.73344   0.34245   1.000
    Zr13    Zr   0.69720   0.91000   0.22306   1.000
    O14     O    0.64393   0.81705   0.14696   1.000
    O15     O    0.57562   0.93267   0.27308   1.000
    O16     O    0.72050   0.14183   0.14090   1.000
    O17     O    0.81094   0.73344   0.34252   1.000
    Zr18    Zr   0.44214   0.13841   0.77728   1.000
    O19     O    0.55764   0.07925   0.65757   1.000
    O20     O    0.38992   0.96782   0.85353   1.000
    O21     O    0.32152   0.21004   0.72768   1.000
    O22     O    0.46715   0.28623   0.85964   1.000
    Zr23    Zr   0.94215   0.13841   0.77689   1.000
    O24     O    0.05764   0.07925   0.65728   1.000
    O25     O    0.96716   0.28624   0.85944   1.000
    O26     O    0.88993   0.96782   0.85333   1.000
    O27     O    0.82153   0.21005   0.72742   1.000
loop_
    _geom_bond_atom_site_label_1
    _geom_bond_atom_site_label_2
    _geom_bond_distance
    _geom_bond_site_symmetry_2
    _ccdc_geom_bond_type
    Zr8    O9        2.84266  1_565   S
    N0     O9        5.55862      .   S
    Zr8    O10       2.37554      .   S
    N7     O10       5.22163  1_556   S
    Zr8    O11       2.14109      .   S
    N6     O11       4.95846  1_655   S
    Zr8    O12       2.72045      .   S
    N1     O12       5.41452      .   S
    Zr13   O14       2.37564      .   S
    N5     O14       5.22174  1_556   S
    Zr13   O15       2.14112      .   S
    N4     O15       4.95861      .   S
    Zr13   O16       2.84266  1_565   S
    N3     O16       5.55860      .   S
    Zr13   O17       2.72073      .   S
    N2     O17       5.41544  1_455   S
    Zr18   O19       2.72430      .   S
    N6     O19       5.42244  1_565   S
    Zr18   O20       2.37025  1_545   S
    N0     O20       5.21268  1_554   S
    Zr18   O21       2.13992      .   S
    N2     O21       4.95535      .   S
    Zr18   O22       2.84014      .   S
    N5     O22       5.55484      .   S
    Zr23   O24       2.72318  1_655   S
    N4     O24       5.41957  1_565   S
    Zr23   O25       2.84237      .   S
    N7     O25       5.55683  1_455   S
    Zr23   O26       2.37033  1_545   S
    N3     O26       5.21256  1_554   S
    Zr23   O27       2.13934      .   S
    N1     O27       4.95535      .   S
