# CIF file generated by openbabel 2.4.90, see http://openbabel.sf.net
data_I
_chemical_name_common ''
_cell_length_a 17.293
_cell_length_b 13.056
_cell_length_c 15.041
_cell_angle_alpha 64.208
_cell_angle_beta 83.189
_cell_angle_gamma 75.681
_space_group_name_H-M_alt 'P 1'
_space_group_name_Hall 'P 1'
loop_
    _symmetry_equiv_pos_as_xyz
    x,y,z
loop_
    _atom_site_label
    _atom_site_type_symbol
    _atom_site_fract_x
    _atom_site_fract_y
    _atom_site_fract_z
    _atom_site_occupancy
    Zr0     Zr   0.39703   0.09772   0.81991   1.000
    Zr1     Zr   0.89704   0.09772   0.81991   1.000
    Zr2     Zr   0.15319   0.91080   0.18159   1.000
    Zr3     Zr   0.65320   0.91080   0.18159   1.000
    Zr4     Zr   0.99715   0.05455   0.67100   1.000
    Zr5     Zr   0.49716   0.05452   0.67180   1.000
    Zr6     Zr   0.18318   0.11158   0.13800   1.000
    Zr7     Zr   0.68320   0.11158   0.13803   1.000
    Zr8     Zr   0.25165   0.72166   0.32720   1.000
    Zr9     Zr   0.75166   0.72167   0.32721   1.000
    Zr10    Zr   0.42867   0.25385   0.86332   1.000
    Zr11    Zr   0.92869   0.25385   0.86332   1.000
    Zr12    Zr   0.00000   0.06216   0.75500   1.000
    Zr13    Zr   0.50001   0.06216   0.75500   1.000
    Zr14    Zr   0.43503   0.05496   0.63644   1.000
    Zr15    Zr   0.93505   0.05495   0.63644   1.000
    Zr16    Zr   0.17715   0.06570   0.07866   1.000
    Zr17    Zr   0.67717   0.06570   0.07865   1.000
    Zr18    Zr   0.17026   0.06192   0.22966   1.000
    Zr19    Zr   0.67027   0.06192   0.22966   1.000
    Zr20    Zr   0.25595   0.81178   0.24350   1.000
    Zr21    Zr   0.75596   0.81178   0.24358   1.000
    Zr22    Zr   0.18892   0.68658   0.36272   1.000
    Zr23    Zr   0.68893   0.68656   0.36272   1.000
    Zr24    Zr   0.42344   0.14773   0.92199   1.000
    Zr25    Zr   0.92346   0.14773   0.92000   1.000
    Zr26    Zr   0.41366   0.29792   0.77253   1.000
    Zr27    Zr   0.91367   0.29792   0.77253   1.000
    O28     O    0.68018   0.08864   0.10834   1.000
    O29     O    0.66518   0.98825   0.13012   1.000
    O30     O    0.18017   0.08864   0.10833   1.000
    O31     O    0.16517   0.98825   0.13012   1.000
    O32     O    0.17672   0.08675   0.18383   1.000
    O33     O    0.67673   0.08675   0.18385   1.000
    O34     O    0.70458   0.86129   0.21258   1.000
    O35     O    0.20457   0.86129   0.21254   1.000
    O36     O    0.25380   0.76672   0.28535   1.000
    O37     O    0.75381   0.76672   0.28539   1.000
    O38     O    0.22028   0.70412   0.34496   1.000
    O39     O    0.72030   0.70412   0.34496   1.000
    O40     O    0.96610   0.05475   0.65372   1.000
    O41     O    0.46610   0.05474   0.65412   1.000
    O42     O    0.99858   0.05835   0.71300   1.000
    O43     O    0.49859   0.05834   0.71340   1.000
    O44     O    0.94852   0.07994   0.78745   1.000
    O45     O    0.44852   0.07994   0.78745   1.000
    O46     O    0.42117   0.27589   0.81793   1.000
    O47     O    0.92118   0.27589   0.81793   1.000
    O48     O    0.41024   0.12273   0.87095   1.000
    O49     O    0.91025   0.12273   0.86996   1.000
    O50     O    0.42606   0.20079   0.89266   1.000
    O51     O    0.92607   0.20079   0.89166   1.000
    N52     N    0.29180   0.57874   0.00041   1.000
    O53     O    0.24379   0.37365   0.05873   1.000
    O54     O    0.33769   0.79722   0.92978   1.000
    N55     N    0.55887   0.42334   0.56989   1.000
    O56     O    0.42468   0.55688   0.46186   1.000
    O57     O    0.70091   0.28168   0.67795   1.000
    N58     N    0.05886   0.42334   0.57014   1.000
    O59     O    0.92468   0.55687   0.46198   1.000
    O60     O    0.20090   0.28168   0.67807   1.000
    N61     N    0.79182   0.57874   0.00041   1.000
    O62     O    0.74380   0.37365   0.05873   1.000
    O63     O    0.83771   0.79722   0.92978   1.000
    N64     N    0.30969   0.99104   0.43046   1.000
    O65     O    0.17313   0.02009   0.53767   1.000
    O66     O    0.45405   0.95534   0.32309   1.000
    N67     N    0.54216   0.57901   0.99983   1.000
    O68     O    0.49216   0.43406   0.94199   1.000
    O69     O    0.59067   0.72409   0.07085   1.000
    N70     N    0.80969   0.99104   0.43046   1.000
    O71     O    0.67313   0.02009   0.53786   1.000
    O72     O    0.95404   0.95534   0.32309   1.000
    N73     N    0.04216   0.57901   0.99983   1.000
    O74     O    0.09066   0.72409   0.07085   1.000
    O75     O    0.99216   0.43406   0.94199   1.000
loop_
    _geom_bond_atom_site_label_1
    _geom_bond_atom_site_label_2
    _geom_bond_distance
    _geom_bond_site_symmetry_2
    _ccdc_geom_bond_type
    Zr17   O28       0.64924      .   S
    Zr7    O28       0.64924      .   S
    Zr17   O29       1.02426  1_545   S
    Zr3    O29       1.02426      .   S
    Zr16   O30       0.64897      .   S
    Zr6    O30       0.64897      .   S
    Zr16   O31       1.02424  1_545   S
    Zr2    O31       1.02424      .   S
    Zr6    O32       0.63083      .   S
    Zr18   O32       0.63083      .   S
    Zr7    O33       0.63064      .   S
    Zr19   O33       0.63064      .   S
    Zr3    O34       0.98821      .   S
    Zr21   O34       0.98821      .   S
    Zr2    O35       0.98805      .   S
    Zr20   O35       0.98805      .   S
    Zr20   O36       0.65324      .   S
    Zr8    O36       0.65324      .   S
    Zr21   O37       0.65289      .   S
    Zr9    O37       0.65289      .   S
    Zr8    O38       0.62601      .   S
    Zr22   O38       0.62601      .   S
    Zr9    O39       0.62601      .   S
    Zr23   O39       0.62601      .   S
    Zr15   O40       0.62267      .   S
    Zr4    O40       0.62267      .   S
    Zr14   O41       0.62596      .   S
    Zr5    O41       0.62596      .   S
    Zr4    O42       0.65859      .   S
    Zr12   O42       0.65859  1_455   S
    Zr5    O43       0.65269      .   S
    Zr13   O43       0.65269      .   S
    Zr12   O44       0.98894  1_455   S
    Zr1    O44       0.98894      .   S
    Zr13   O45       0.98911      .   S
    Zr0    O45       0.98911      .   S
    Zr26   O46       0.63042      .   S
    Zr10   O46       0.63042      .   S
    Zr27   O47       0.63043      .   S
    Zr11   O47       0.63043      .   S
    Zr0    O48       1.02210      .   S
    Zr24   O48       1.02210      .   S
    Zr1    O49       1.00840      .   S
    Zr25   O49       1.00840      .   S
    Zr10   O50       0.64915      .   S
    Zr24   O50       0.64915      .   S
    Zr11   O51       0.64621      .   S
    Zr25   O51       0.64621      .   S
    N52    O53       2.74077      .   S
    Zr6    O53       3.48629      .   S
    N52    O54       2.85970  1_554   S
    Zr0    O54       3.88883  1_545   S
    N55    O56       2.73727      .   S
    Zr8    O56       3.48494      .   S
    N55    O57       2.86011      .   S
    Zr1    O57       3.88034      .   S
    N58    O59       2.73794  1_455   S
    Zr9    O59       3.48564      .   S
    N58    O60       2.85932      .   S
    Zr0    O60       3.87955      .   S
    N61    O62       2.74075      .   S
    Zr7    O62       3.48624      .   S
    N61    O63       2.85971  1_554   S
    Zr1    O63       3.88885  1_545   S
    N64    O65       2.73983  1_565   S
    Zr4    O65       3.48505  1_655   S
    N64    O66       2.86019      .   S
    Zr3    O66       3.88283      .   S
    N67    O68       2.73988      .   S
    Zr10   O68       3.48560      .   S
    N67    O69       2.86212  1_556   S
    Zr3    O69       3.89237      .   S
    N70    O71       2.74143  1_565   S
    Zr5    O71       3.48972      .   S
    N70    O72       2.86006      .   S
    Zr2    O72       3.88272  1_455   S
    N73    O74       2.86211  1_556   S
    Zr2    O74       3.89232      .   S
    N73    O75       2.73977  1_455   S
    Zr11   O75       3.48548      .   S
