# CIF file generated by openbabel 2.4.90, see http://openbabel.sf.net
data_I
_chemical_name_common ''
_cell_length_a 16.167
_cell_length_b 16.49
_cell_length_c 16.492
_cell_angle_alpha 98.472
_cell_angle_beta 93.827
_cell_angle_gamma 93.835
_space_group_name_H-M_alt 'P 1'
_space_group_name_Hall 'P 1'
loop_
    _symmetry_equiv_pos_as_xyz
    x,y,z
loop_
    _atom_site_label
    _atom_site_type_symbol
    _atom_site_fract_x
    _atom_site_fract_y
    _atom_site_fract_z
    _atom_site_occupancy
    H0      H    0.45359   0.26209   0.72633   1.000
    H1      H    0.27994   0.25836   0.51455   1.000
    H2      H    0.22633   0.10866   0.70157   1.000
    H3      H    0.36073   0.90867   0.34177   1.000
    H4      H    0.50557   0.84568   0.54932   1.000
    H5      H    0.61985   0.00000   0.39282   1.000
    H6      H    0.04566   0.27296   0.73693   1.000
    H7      H    0.21930   0.48461   0.73941   1.000
    H8      H    0.27307   0.29845   0.89010   1.000
    H9      H    0.13967   0.65766   0.09069   1.000
    H10     H    0.99439   0.45030   0.15371   1.000
    H11     H    0.88045   0.60699   0.00409   1.000
    H12     H    0.54570   0.73702   0.27305   1.000
    H13     H    0.71929   0.73967   0.48473   1.000
    H14     H    0.77303   0.89032   0.29852   1.000
    H15     H    0.63951   0.09063   0.65781   1.000
    H16     H    0.49431   0.15381   0.45055   1.000
    H17     H    0.38034   0.00397   0.60704   1.000
    H18     H    0.95356   0.72625   0.26209   1.000
    H19     H    0.77982   0.51446   0.25831   1.000
    H20     H    0.72635   0.70155   0.10866   1.000
    H21     H    0.86072   0.34165   0.90859   1.000
    H22     H    0.00558   0.54927   0.84564   1.000
    H23     H    0.11983   0.39269   0.00000   1.000
    C24     C    0.89427   0.69092   0.24295   1.000
    C25     C    0.87205   0.61658   0.26959   1.000
    C26     C    0.79519   0.57433   0.24006   1.000
    C27     C    0.74292   0.60571   0.18283   1.000
    C28     C    0.34300   0.18553   0.72277   1.000
    C29     C    0.39432   0.24293   0.69096   1.000
    C30     C    0.37213   0.26958   0.61664   1.000
    C31     C    0.29529   0.24008   0.57439   1.000
    C32     C    0.24298   0.18283   0.60574   1.000
    C33     C    0.26747   0.15432   0.67929   1.000
    C34     C    0.43236   0.32093   0.57652   1.000
    C35     C    0.16480   0.14655   0.55582   1.000
    C36     C    0.48919   0.95604   0.35740   1.000
    C37     C    0.41983   0.90924   0.37768   1.000
    C38     C    0.42510   0.86801   0.44624   1.000
    C39     C    0.50120   0.87289   0.49327   1.000
    C40     C    0.57103   0.91770   0.47305   1.000
    C41     C    0.56459   0.95897   0.40491   1.000
    C42     C    0.34828   0.82804   0.47502   1.000
    C43     C    0.65028   0.93140   0.52683   1.000
    C44     C    0.15637   0.27687   0.81336   1.000
    C45     C    0.10493   0.30841   0.75584   1.000
    C46     C    0.12709   0.38251   0.72870   1.000
    C47     C    0.20399   0.42487   0.75796   1.000
    C48     C    0.25629   0.39385   0.81544   1.000
    C49     C    0.23188   0.32046   0.84430   1.000
    C50     C    0.06691   0.42236   0.67699   1.000
    C51     C    0.33428   0.44388   0.85203   1.000
    C52     C    0.01118   0.64225   0.04326   1.000
    C53     C    0.08049   0.62188   0.09012   1.000
    C54     C    0.07506   0.55333   0.13140   1.000
    C55     C    0.99888   0.50633   0.12645   1.000
    C56     C    0.92914   0.52666   0.08159   1.000
    C57     C    0.93571   0.59484   0.04041   1.000
    C58     C    0.15180   0.52444   0.17144   1.000
    C59     C    0.84985   0.47296   0.06762   1.000
    C60     C    0.65638   0.81349   0.27695   1.000
    C61     C    0.60495   0.75597   0.30852   1.000
    C62     C    0.62710   0.72889   0.38264   1.000
    C63     C    0.70398   0.75820   0.42498   1.000
    C64     C    0.75627   0.81571   0.39395   1.000
    C65     C    0.73187   0.84452   0.32055   1.000
    C66     C    0.56694   0.67715   0.42251   1.000
    C67     C    0.83426   0.85230   0.44399   1.000
    C68     C    0.51106   0.04317   0.64235   1.000
    C69     C    0.58034   0.09006   0.62203   1.000
    C70     C    0.57494   0.13140   0.55352   1.000
    C71     C    0.49880   0.12647   0.50653   1.000
    C72     C    0.42906   0.08156   0.52680   1.000
    C73     C    0.43560   0.04031   0.59494   1.000
    C74     C    0.65170   0.17146   0.52471   1.000
    C75     C    0.34979   0.06764   0.47310   1.000
    C76     C    0.84296   0.72276   0.18558   1.000
    C77     C    0.76745   0.67928   0.15435   1.000
    C78     C    0.93229   0.57646   0.32092   1.000
    C79     C    0.66479   0.55580   0.14635   1.000
    C80     C    0.00000   0.35731   0.95597   1.000
    C81     C    0.91981   0.37759   0.90917   1.000
    C82     C    0.92508   0.44616   0.86796   1.000
    C83     C    0.00121   0.49320   0.87284   1.000
    C84     C    0.07103   0.47298   0.91763   1.000
    C85     C    0.06459   0.40483   0.95889   1.000
    C86     C    0.84829   0.47495   0.82799   1.000
    C87     C    0.15027   0.52677   0.93129   1.000
loop_
    _geom_bond_atom_site_label_1
    _geom_bond_atom_site_label_2
    _geom_bond_distance
    _geom_bond_site_symmetry_2
    _ccdc_geom_bond_type
    H23    C85       1.13148  1_554   S
    H11    C57       1.08845      .   S
    C57    C52       1.39857  1_655   S
    C57    C56       1.39842      .   S
    C52    C53       1.40592      .   S
    C59    C56       1.49297      .   S
    C56    C55       1.39397      .   S
    C53    H9        1.08873      .   S
    C53    C54       1.40369      .   S
    H20    C77       1.09146      .   S
    C55    C54       1.40156  1_655   S
    C55    H10       1.08580      .   S
    C54    C58       1.50473      .   S
    C79    C27       1.49955      .   S
    C77    C27       1.40639      .   S
    C77    C76       1.40001      .   S
    C27    C26       1.40317      .   S
    C76    C24       1.39964      .   S
    C26    H19       1.09166      .   S
    C26    C25       1.40351      .   S
    C24    H18       1.09023      .   S
    C24    C25       1.39481      .   S
    C25    C78       1.49798      .   S
    H12    C61       1.09025      .   S
    C60    C61       1.39990      .   S
    C60    C65       1.39969      .   S
    H14    C65       1.09146      .   S
    C61    C62       1.39499      .   S
    C65    C64       1.40634      .   S
    H3     C37       1.08870      .   S
    C36    C37       1.40547      .   S
    C36    C41       1.39849      .   S
    C37    C38       1.40319      .   S
    C62    C66       1.49865      .   S
    C62    C63       1.40377      .   S
    H5     C41       1.13062  1_545   S
    C64    C63       1.40320      .   S
    C64    C67       1.49923      .   S
    C41    C40       1.39857      .   S
    C63    H13       1.09175      .   S
    C38    C42       1.50455      .   S
    C38    C39       1.40107      .   S
    H16    C71       1.08576      .   S
    C40    C39       1.39390      .   S
    C40    C43       1.49319      .   S
    C75    C72       1.49284      .   S
    C39    H4        1.08566      .   S
    C71    C72       1.39397      .   S
    C71    C70       1.40111      .   S
    H1     C31       1.09162      .   S
    C74    C70       1.50470      .   S
    C72    C73       1.39844      .   S
    C70    C69       1.40365      .   S
    C35    C32       1.49942      .   S
    C31    C32       1.40315      .   S
    C31    C30       1.40332      .   S
    C34    C30       1.49786      .   S
    C73    H17       1.08841      .   S
    C73    C68       1.39857      .   S
    C32    C33       1.40637      .   S
    C30    C29       1.39479      .   S
    C69    C68       1.40554      .   S
    C69    H15       1.08870      .   S
    C50    C46       1.49857      .   S
    C33    H2        1.09148      .   S
    C33    C28       1.40009      .   S
    C29    C28       1.39964      .   S
    C29    H0        1.09022      .   S
    C46    C45       1.39498      .   S
    C46    C47       1.40379      .   S
    H6     C45       1.09024      .   S
    H7     C47       1.09175      .   S
    C45    C44       1.39990      .   S
    C47    C48       1.40312      .   S
    C44    C49       1.39963      .   S
    C48    C49       1.40635      .   S
    C48    C51       1.49905      .   S
    C86    C82       1.50437      .   S
    C49    H8        1.09147      .   S
    H22    C83       1.08565      .   S
    C82    C83       1.40136  1_655   S
    C82    C81       1.40317      .   S
    C83    C84       1.39380      .   S
    H21    C81       1.08870      .   S
    C81    C80       1.54558  1_655   S
    C84    C87       1.49301      .   S
    C84    C85       1.39860      .   S
    C80    C85       1.25675      .   S
