# CIF file generated by openbabel 2.4.90, see http://openbabel.sf.net
data_I
_chemical_name_common ''
_cell_length_a 16.167
_cell_length_b 16.49
_cell_length_c 16.492
_cell_angle_alpha 98.472
_cell_angle_beta 93.827
_cell_angle_gamma 93.835
_space_group_name_H-M_alt 'P 1'
_space_group_name_Hall 'P 1'
loop_
    _symmetry_equiv_pos_as_xyz
    x,y,z
loop_
    _atom_site_label
    _atom_site_type_symbol
    _atom_site_fract_x
    _atom_site_fract_y
    _atom_site_fract_z
    _atom_site_occupancy
    H0      H    0.43365   0.06214   0.90633   1.000
    H1      H    0.33158   0.02638   0.92463   1.000
    H2      H    0.55976   0.39002   0.52700   1.000
    H3      H    0.62371   0.38058   0.61607   1.000
    H4      H    0.08295   0.13149   0.40397   1.000
    H5      H    0.04373   0.22918   0.42502   1.000
    H6      H    0.58927   0.15033   0.21124   1.000
    H7      H    0.48910   0.10383   0.17520   1.000
    H8      H    0.25069   0.70377   0.53027   1.000
    H9      H    0.31778   0.70932   0.61957   1.000
    H10     H    0.78419   0.93221   0.62224   1.000
    H11     H    0.71964   0.93391   0.70515   1.000
    H12     H    0.27770   0.07532   0.81109   1.000
    H13     H    0.49504   0.36725   0.68785   1.000
    H14     H    0.13870   0.26079   0.53276   1.000
    H15     H    0.59540   0.06750   0.31677   1.000
    H16     H    0.41777   0.78286   0.56681   1.000
    H17     H    0.61724   0.84224   0.59527   1.000
    H18     H    0.06608   0.09342   0.93712   1.000
    H19     H    0.16823   0.07482   0.97245   1.000
    H20     H    0.93888   0.47199   0.60885   1.000
    H21     H    0.87505   0.38245   0.61706   1.000
    H22     H    0.41650   0.59518   0.86940   1.000
    H23     H    0.45549   0.57607   0.77150   1.000
    H24     H    0.91068   0.78741   0.84834   1.000
    H25     H    0.01071   0.82409   0.89486   1.000
    H26     H    0.24917   0.46906   0.29568   1.000
    H27     H    0.18207   0.37976   0.28999   1.000
    H28     H    0.71591   0.37774   0.06576   1.000
    H29     H    0.78011   0.29444   0.06306   1.000
    H30     H    0.22206   0.18857   0.92376   1.000
    H31     H    0.00319   0.31113   0.63216   1.000
    H32     H    0.36119   0.46784   0.73825   1.000
    H33     H    0.90465   0.68283   0.93207   1.000
    H34     H    0.08219   0.43255   0.21644   1.000
    H35     H    0.88267   0.40344   0.15601   1.000
    H36     H    0.56599   0.93715   0.09347   1.000
    H37     H    0.66814   0.97234   0.07467   1.000
    H38     H    0.43891   0.60893   0.47213   1.000
    H39     H    0.37503   0.61726   0.38268   1.000
    H40     H    0.91644   0.86939   0.59533   1.000
    H41     H    0.95537   0.77148   0.57602   1.000
    H42     H    0.41055   0.84809   0.78738   1.000
    H43     H    0.51048   0.89470   0.82419   1.000
    H44     H    0.74915   0.29573   0.46930   1.000
    H45     H    0.68216   0.28988   0.37992   1.000
    H46     H    0.21584   0.06588   0.37796   1.000
    H47     H    0.28005   0.06298   0.29466   1.000
    H48     H    0.72199   0.92386   0.18854   1.000
    H49     H    0.50314   0.63259   0.31134   1.000
    H50     H    0.86107   0.73845   0.46781   1.000
    H51     H    0.40452   0.93198   0.68297   1.000
    H52     H    0.58224   0.21632   0.43264   1.000
    H53     H    0.38263   0.15606   0.40361   1.000
    H54     H    0.93363   0.90640   0.06229   1.000
    H55     H    0.83156   0.92469   0.02652   1.000
    H56     H    0.05969   0.52694   0.39005   1.000
    H57     H    0.12366   0.61601   0.38055   1.000
    H58     H    0.58295   0.40369   0.13156   1.000
    H59     H    0.54296   0.42539   0.22877   1.000
    H60     H    0.08918   0.21096   0.15011   1.000
    H61     H    0.98895   0.17499   0.10365   1.000
    H62     H    0.75070   0.53021   0.70378   1.000
    H63     H    0.81783   0.61948   0.70925   1.000
    H64     H    0.28419   0.62218   0.93214   1.000
    H65     H    0.21968   0.70512   0.93389   1.000
    H66     H    0.77767   0.81112   0.07540   1.000
    H67     H    0.00000   0.68780   0.36725   1.000
    H68     H    0.63820   0.53277   0.26044   1.000
    H69     H    0.09530   0.31667   0.06753   1.000
    H70     H    0.91780   0.56674   0.78282   1.000
    H71     H    0.11721   0.59530   0.84222   1.000
    C72     C    0.37800   0.16205   0.80255   1.000
    C73     C    0.36963   0.07983   0.91104   1.000
    C74     C    0.56595   0.40490   0.59432   1.000
    C75     C    0.05752   0.17401   0.45199   1.000
    O76     O    0.14380   0.07084   0.54444   1.000
    C77     C    0.47564   0.01009   0.29204   1.000
    C78     C    0.52917   0.12827   0.23100   1.000
    C79     C    0.29196   0.74661   0.57536   1.000
    C80     C    0.73397   0.89767   0.64690   1.000
    C81     C    0.12155   0.19721   0.83722   1.000
    C82     C    0.13002   0.08861   0.91922   1.000
    C83     C    0.93302   0.40470   0.59346   1.000
    C84     C    0.44196   0.54793   0.82603   1.000
    C85     C    0.02473   0.70738   0.98888   1.000
    C86     C    0.97087   0.76805   0.87064   1.000
    C87     C    0.20798   0.42400   0.25277   1.000
    C88     C    0.76600   0.35247   0.09987   1.000
    C89     C    0.62154   0.83727   0.19727   1.000
    C90     C    0.62989   0.91917   0.08859   1.000
    C91     C    0.43301   0.59363   0.40484   1.000
    C92     C    0.94188   0.82609   0.54800   1.000
    C93     C    0.52458   0.98878   0.70745   1.000
    C94     C    0.47075   0.87050   0.76810   1.000
    C95     C    0.70803   0.25273   0.42424   1.000
    C96     C    0.26597   0.09989   0.35264   1.000
    C97     C    0.87797   0.80256   0.16212   1.000
    C98     C    0.86960   0.91110   0.07995   1.000
    C99     C    0.06589   0.59428   0.40490   1.000
    C100    C    0.55723   0.45199   0.17351   1.000
    C101    C    0.97557   0.29189   0.00998   1.000
    C102    C    0.02906   0.23076   0.12815   1.000
    C103    C    0.79200   0.57530   0.74658   1.000
    C104    C    0.23399   0.64687   0.89762   1.000
    N105    N    0.33614   0.10138   0.83408   1.000
    N106    N    0.49533   0.36427   0.62565   1.000
    N107    N    0.11981   0.19981   0.52009   1.000
    N108    N    0.54092   0.06414   0.28128   1.000
    N109    N    0.35990   0.78407   0.53731   1.000
    N110    N    0.66073   0.88827   0.58886   1.000
    N111    N    0.16362   0.16562   0.89773   1.000
    N112    N    0.00337   0.37329   0.63448   1.000
    N113    N    0.37974   0.47993   0.79933   1.000
    N114    N    0.95923   0.71810   0.93506   1.000
    N115    N    0.14006   0.46207   0.21530   1.000
    N116    N    0.83944   0.41028   0.10990   1.000
    N117    N    0.66356   0.89777   0.16560   1.000
    N118    N    0.50335   0.63472   0.37347   1.000
    N119    N    0.87967   0.79952   0.47998   1.000
    N120    N    0.45910   0.93496   0.71821   1.000
    N121    N    0.64007   0.21524   0.46226   1.000
    N122    N    0.33940   0.10994   0.41044   1.000
    N123    N    0.83610   0.83411   0.10148   1.000
    N124    N    0.00000   0.62560   0.36427   1.000
    N125    N    0.61947   0.52015   0.19942   1.000
    N126    N    0.04080   0.28119   0.06413   1.000
    N127    N    0.85993   0.53722   0.78401   1.000
    N128    N    0.16072   0.58884   0.88821   1.000
    O129    O    0.44409   0.19743   0.83682   1.000
    O130    O    0.42653   0.31973   0.50021   1.000
    O131    O    0.40731   0.00848   0.25314   1.000
    O132    O    0.27638   0.83665   0.44462   1.000
    O133    O    0.70471   0.00000   0.51393   1.000
    O134    O    0.05533   0.16293   0.80217   1.000
    O135    O    0.07331   0.49852   0.67710   1.000
    O136    O    0.35473   0.45499   0.92782   1.000
    O137    O    0.09310   0.74605   0.00000   1.000
    O138    O    0.22376   0.55481   0.16299   1.000
    O139    O    0.79527   0.48645   0.01417   1.000
    O140    O    0.55535   0.80214   0.16300   1.000
    O141    O    0.57338   0.67714   0.49863   1.000
    O142    O    0.85475   0.92810   0.45516   1.000
    O143    O    0.59298   0.00000   0.74609   1.000
    O144    O    0.72361   0.16309   0.55524   1.000
    O145    O    0.29518   0.01419   0.48654   1.000
    O146    O    0.94407   0.83683   0.19750   1.000
    O147    O    0.92649   0.50013   0.31969   1.000
    O148    O    0.64415   0.54437   0.07058   1.000
    O149    O    0.90726   0.25292   0.00819   1.000
    O150    O    0.77638   0.44454   0.83660   1.000
    O151    O    0.20472   0.51385   0.00000   1.000
loop_
    _geom_bond_atom_site_label_1
    _geom_bond_atom_site_label_2
    _geom_bond_distance
    _geom_bond_site_symmetry_2
    _ccdc_geom_bond_type
    O137   C85       1.22735  1_554   S
    O149   C101      1.23631      .   S
    C101   N126      1.37340  1_655   S
    H55    C98       1.09968      .   S
    H54    C98       1.09858      .   S
    H29    C88       1.10133      .   S
    N126   H69       1.01811      .   S
    N126   C102      1.45149      .   S
    H28    C88       1.09511      .   S
    H37    C90       1.09972      .   S
    H66    N123      1.03474      .   S
    C98    N123      1.44824      .   S
    C90    H36       1.09850      .   S
    C90    N117      1.44891      .   S
    C88    N116      1.45662      .   S
    N123   C97       1.35622      .   S
    H61    C102      1.09789  1_655   S
    N116   H35       1.02183      .   S
    C102   H60       1.10124      .   S
    H58    C100      1.09843      .   S
    C97    O146      1.24110      .   S
    O140   C89       1.24088      .   S
    N117   H48       1.03464      .   S
    N117   C89       1.35643      .   S
    C100   N125      1.45185      .   S
    C100   H59       1.09926      .   S
    H7     C78       1.09769      .   S
    N125   H68       1.01829      .   S
    H6     C78       1.10124      .   S
    N115   H34       1.02800      .   S
    N115   C87       1.44837      .   S
    C78    N108      1.45138      .   S
    C87    H27       1.09990      .   S
    C87    H26       1.10118      .   S
    O131   C77       1.23650      .   S
    N108   C77       1.37308      .   S
    N108   H15       1.01804      .   S
    H47    C96       1.10131      .   S
    H49    N118      1.01974      .   S
    C96    H46       1.09512      .   S
    C96    N122      1.45662      .   S
    N124   H67       1.01954      .   S
    N124   C99       1.38950      .   S
    N118   C91       1.44875      .   S
    H45    C95       1.09988      .   S
    H57    C99       1.09975      .   S
    H39    C91       1.09962      .   S
    H56    C99       1.09751      .   S
    H53    N122      1.02185      .   S
    H4     C75       1.09825      .   S
    C91    H38       1.09749      .   S
    C95    N121      1.44849      .   S
    C95    H44       1.10122      .   S
    H5     C75       1.09923      .   S
    H52    N121      1.02810      .   S
    C75    N107      1.45156      .   S
    H50    N119      1.01831      .   S
    N119   C92       1.45167      .   S
    N107   H14       1.01824      .   S
    H2     C74       1.09751      .   S
    H8     C79       1.10134      .   S
    N109   H16       1.02810      .   S
    N109   C79       1.44827      .   S
    C92    H41       1.09901      .   S
    C92    H40       1.09819      .   S
    C79    H9        1.09993      .   S
    N110   H17       1.02182      .   S
    N110   C80       1.45699      .   S
    C83    H20       1.09751      .   S
    C83    H21       1.09964      .   S
    C83    N112      1.44874  1_655   S
    C74    H3        1.09972      .   S
    C74    N106      1.44831      .   S
    H10    C80       1.09523      .   S
    N106   H13       1.01991      .   S
    H31    N112      1.01992      .   S
    C80    H11       1.10130      .   S
    H51    N120      1.01801      .   S
    H62    C103      1.10133      .   S
    C93    N120      1.37311      .   S
    C93    O143      1.22757  1_565   S
    H63    C103      1.09990      .   S
    N120   C94       1.45126      .   S
    H32    N113      1.01830      .   S
    C103   N127      1.44824      .   S
    C94    H42       1.10124      .   S
    C94    H43       1.09770      .   S
    H23    C84       1.09900      .   S
    H70    N127      1.02810      .   S
    N113   C84       1.45175      .   S
    O134   C81       1.24088      .   S
    C72    N105      1.35617      .   S
    C72    O129      1.24108      .   S
    H12    N105      1.03475      .   S
    C84    H22       1.09818      .   S
    N105   C73       1.44825      .   S
    C81    N111      1.35645      .   S
    H71    N128      1.02180      .   S
    H24    C86       1.10122      .   S
    C86    H25       1.09792  1_655   S
    C86    N114      1.45123      .   S
    N128   C104      1.45702      .   S
    C104   H64       1.09523      .   S
    C104   H65       1.10130      .   S
    N111   C82       1.44881      .   S
    N111   H30       1.03460      .   S
    H0     C73       1.09858      .   S
    C73    H1        1.09970      .   S
    C82    H18       1.09852      .   S
    C82    H19       1.09972      .   S
    H33    N114      1.01801      .   S
    N114   C85       1.37344  1_655   S
