# CIF file generated by openbabel 2.4.90, see http://openbabel.sf.net
data_I
_chemical_name_common ''
_cell_length_a 16.167
_cell_length_b 16.49
_cell_length_c 16.492
_cell_angle_alpha 98.472
_cell_angle_beta 93.827
_cell_angle_gamma 93.835
_space_group_name_H-M_alt 'P 1'
_space_group_name_Hall 'P 1'
loop_
    _symmetry_equiv_pos_as_xyz
    x,y,z
loop_
    _atom_site_label
    _atom_site_type_symbol
    _atom_site_fract_x
    _atom_site_fract_y
    _atom_site_fract_z
    _atom_site_occupancy
    H0      H    0.45359   0.26209   0.72633   1.000
    H1      H    0.27994   0.25836   0.51455   1.000
    H2      H    0.22633   0.10866   0.70157   1.000
    H3      H    0.43365   0.06214   0.90633   1.000
    H4      H    0.33158   0.02638   0.92463   1.000
    H5      H    0.55976   0.39002   0.52700   1.000
    H6      H    0.62371   0.38058   0.61607   1.000
    H7      H    0.08295   0.13149   0.40397   1.000
    H8      H    0.04373   0.22918   0.42502   1.000
    H9      H    0.36073   0.90867   0.34177   1.000
    H10     H    0.50557   0.84568   0.54932   1.000
    H11     H    0.61985   0.00000   0.39282   1.000
    H12     H    0.58927   0.15033   0.21124   1.000
    H13     H    0.48910   0.10383   0.17520   1.000
    H14     H    0.25069   0.70377   0.53027   1.000
    H15     H    0.31778   0.70932   0.61957   1.000
    H16     H    0.78419   0.93221   0.62224   1.000
    H17     H    0.71964   0.93391   0.70515   1.000
    H18     H    0.27770   0.07532   0.81109   1.000
    H19     H    0.49504   0.36725   0.68785   1.000
    H20     H    0.13870   0.26079   0.53276   1.000
    H21     H    0.59540   0.06750   0.31677   1.000
    H22     H    0.41777   0.78286   0.56681   1.000
    H23     H    0.61724   0.84224   0.59527   1.000
    H24     H    0.04566   0.27296   0.73693   1.000
    H25     H    0.21930   0.48461   0.73941   1.000
    H26     H    0.27307   0.29845   0.89010   1.000
    H27     H    0.06608   0.09342   0.93712   1.000
    H28     H    0.16823   0.07482   0.97245   1.000
    H29     H    0.93888   0.47199   0.60885   1.000
    H30     H    0.87505   0.38245   0.61706   1.000
    H31     H    0.41650   0.59518   0.86940   1.000
    H32     H    0.45549   0.57607   0.77150   1.000
    H33     H    0.13967   0.65766   0.09069   1.000
    H34     H    0.99439   0.45030   0.15371   1.000
    H35     H    0.88045   0.60699   0.00409   1.000
    H36     H    0.91068   0.78741   0.84834   1.000
    H37     H    0.01071   0.82409   0.89486   1.000
    H38     H    0.24917   0.46906   0.29568   1.000
    H39     H    0.18207   0.37976   0.28999   1.000
    H40     H    0.71591   0.37774   0.06576   1.000
    H41     H    0.78011   0.29444   0.06306   1.000
    H42     H    0.22206   0.18857   0.92376   1.000
    H43     H    0.00319   0.31113   0.63216   1.000
    H44     H    0.36119   0.46784   0.73825   1.000
    H45     H    0.90465   0.68283   0.93207   1.000
    H46     H    0.08219   0.43255   0.21644   1.000
    H47     H    0.88267   0.40344   0.15601   1.000
    H48     H    0.54570   0.73702   0.27305   1.000
    H49     H    0.71929   0.73967   0.48473   1.000
    H50     H    0.77303   0.89032   0.29852   1.000
    H51     H    0.56599   0.93715   0.09347   1.000
    H52     H    0.66814   0.97234   0.07467   1.000
    H53     H    0.43891   0.60893   0.47213   1.000
    H54     H    0.37503   0.61726   0.38268   1.000
    H55     H    0.91644   0.86939   0.59533   1.000
    H56     H    0.95537   0.77148   0.57602   1.000
    H57     H    0.63951   0.09063   0.65781   1.000
    H58     H    0.49431   0.15381   0.45055   1.000
    H59     H    0.38034   0.00397   0.60704   1.000
    H60     H    0.41055   0.84809   0.78738   1.000
    H61     H    0.51048   0.89470   0.82419   1.000
    H62     H    0.74915   0.29573   0.46930   1.000
    H63     H    0.68216   0.28988   0.37992   1.000
    H64     H    0.21584   0.06588   0.37796   1.000
    H65     H    0.28005   0.06298   0.29466   1.000
    H66     H    0.72199   0.92386   0.18854   1.000
    H67     H    0.50314   0.63259   0.31134   1.000
    H68     H    0.86107   0.73845   0.46781   1.000
    H69     H    0.40452   0.93198   0.68297   1.000
    H70     H    0.58224   0.21632   0.43264   1.000
    H71     H    0.38263   0.15606   0.40361   1.000
    H72     H    0.95356   0.72625   0.26209   1.000
    H73     H    0.77982   0.51446   0.25831   1.000
    H74     H    0.72635   0.70155   0.10866   1.000
    H75     H    0.93363   0.90640   0.06229   1.000
    H76     H    0.83156   0.92469   0.02652   1.000
    H77     H    0.05969   0.52694   0.39005   1.000
    H78     H    0.12366   0.61601   0.38055   1.000
    H79     H    0.58295   0.40369   0.13156   1.000
    H80     H    0.54296   0.42539   0.22877   1.000
    H81     H    0.86072   0.34165   0.90859   1.000
    H82     H    0.00558   0.54927   0.84564   1.000
    H83     H    0.11983   0.39269   0.00000   1.000
    H84     H    0.08918   0.21096   0.15011   1.000
    H85     H    0.98895   0.17499   0.10365   1.000
    H86     H    0.75070   0.53021   0.70378   1.000
    H87     H    0.81783   0.61948   0.70925   1.000
    C88     C    0.89427   0.69092   0.24295   1.000
    C89     C    0.87205   0.61658   0.26959   1.000
    C90     C    0.79519   0.57433   0.24006   1.000
    C91     C    0.74292   0.60571   0.18283   1.000
    H92     H    0.28419   0.62218   0.93214   1.000
    H93     H    0.21968   0.70512   0.93389   1.000
    H94     H    0.77767   0.81112   0.07540   1.000
    H95     H    0.00000   0.68780   0.36725   1.000
    H96     H    0.63820   0.53277   0.26044   1.000
    H97     H    0.09530   0.31667   0.06753   1.000
    H98     H    0.91780   0.56674   0.78282   1.000
    H99     H    0.11721   0.59530   0.84222   1.000
    C100    C    0.34300   0.18553   0.72277   1.000
    C101    C    0.39432   0.24293   0.69096   1.000
    C102    C    0.37213   0.26958   0.61664   1.000
    C103    C    0.29529   0.24008   0.57439   1.000
    C104    C    0.24298   0.18283   0.60574   1.000
    C105    C    0.26747   0.15432   0.67929   1.000
    C106    C    0.37800   0.16205   0.80255   1.000
    C107    C    0.36963   0.07983   0.91104   1.000
    C108    C    0.43236   0.32093   0.57652   1.000
    C109    C    0.56595   0.40490   0.59432   1.000
    C110    C    0.16480   0.14655   0.55582   1.000
    C111    C    0.05752   0.17401   0.45199   1.000
    C112    C    0.48919   0.95604   0.35740   1.000
    C113    C    0.41983   0.90924   0.37768   1.000
    C114    C    0.42510   0.86801   0.44624   1.000
    C115    C    0.50120   0.87289   0.49327   1.000
    C116    C    0.57103   0.91770   0.47305   1.000
    O117    O    0.14380   0.07084   0.54444   1.000
    C118    C    0.56459   0.95897   0.40491   1.000
    C119    C    0.47564   0.01009   0.29204   1.000
    C120    C    0.52917   0.12827   0.23100   1.000
    C121    C    0.34828   0.82804   0.47502   1.000
    C122    C    0.29196   0.74661   0.57536   1.000
    C123    C    0.65028   0.93140   0.52683   1.000
    C124    C    0.73397   0.89767   0.64690   1.000
    C125    C    0.15637   0.27687   0.81336   1.000
    C126    C    0.10493   0.30841   0.75584   1.000
    C127    C    0.12709   0.38251   0.72870   1.000
    C128    C    0.20399   0.42487   0.75796   1.000
    C129    C    0.25629   0.39385   0.81544   1.000
    C130    C    0.23188   0.32046   0.84430   1.000
    C131    C    0.12155   0.19721   0.83722   1.000
    C132    C    0.13002   0.08861   0.91922   1.000
    C133    C    0.06691   0.42236   0.67699   1.000
    C134    C    0.93302   0.40470   0.59346   1.000
    C135    C    0.33428   0.44388   0.85203   1.000
    C136    C    0.44196   0.54793   0.82603   1.000
    C137    C    0.01118   0.64225   0.04326   1.000
    C138    C    0.08049   0.62188   0.09012   1.000
    C139    C    0.07506   0.55333   0.13140   1.000
    C140    C    0.99888   0.50633   0.12645   1.000
    C141    C    0.92914   0.52666   0.08159   1.000
    C142    C    0.93571   0.59484   0.04041   1.000
    C143    C    0.02473   0.70738   0.98888   1.000
    C144    C    0.97087   0.76805   0.87064   1.000
    C145    C    0.15180   0.52444   0.17144   1.000
    C146    C    0.20798   0.42400   0.25277   1.000
    C147    C    0.84985   0.47296   0.06762   1.000
    C148    C    0.76600   0.35247   0.09987   1.000
    C149    C    0.65638   0.81349   0.27695   1.000
    C150    C    0.60495   0.75597   0.30852   1.000
    C151    C    0.62710   0.72889   0.38264   1.000
    C152    C    0.70398   0.75820   0.42498   1.000
    C153    C    0.75627   0.81571   0.39395   1.000
    C154    C    0.73187   0.84452   0.32055   1.000
    C155    C    0.62154   0.83727   0.19727   1.000
    C156    C    0.62989   0.91917   0.08859   1.000
    C157    C    0.56694   0.67715   0.42251   1.000
    C158    C    0.43301   0.59363   0.40484   1.000
    C159    C    0.83426   0.85230   0.44399   1.000
    C160    C    0.94188   0.82609   0.54800   1.000
    C161    C    0.51106   0.04317   0.64235   1.000
    C162    C    0.58034   0.09006   0.62203   1.000
    C163    C    0.57494   0.13140   0.55352   1.000
    C164    C    0.49880   0.12647   0.50653   1.000
    C165    C    0.42906   0.08156   0.52680   1.000
    C166    C    0.43560   0.04031   0.59494   1.000
    C167    C    0.52458   0.98878   0.70745   1.000
    C168    C    0.47075   0.87050   0.76810   1.000
    C169    C    0.65170   0.17146   0.52471   1.000
    C170    C    0.70803   0.25273   0.42424   1.000
    C171    C    0.34979   0.06764   0.47310   1.000
    C172    C    0.26597   0.09989   0.35264   1.000
    C173    C    0.84296   0.72276   0.18558   1.000
    C174    C    0.76745   0.67928   0.15435   1.000
    C175    C    0.87797   0.80256   0.16212   1.000
    C176    C    0.86960   0.91110   0.07995   1.000
    C177    C    0.93229   0.57646   0.32092   1.000
    C178    C    0.06589   0.59428   0.40490   1.000
    C179    C    0.66479   0.55580   0.14635   1.000
    C180    C    0.55723   0.45199   0.17351   1.000
    C181    C    0.00000   0.35731   0.95597   1.000
    C182    C    0.91981   0.37759   0.90917   1.000
    C183    C    0.92508   0.44616   0.86796   1.000
    C184    C    0.00121   0.49320   0.87284   1.000
    C185    C    0.07103   0.47298   0.91763   1.000
    C186    C    0.06459   0.40483   0.95889   1.000
    C187    C    0.97557   0.29189   0.00998   1.000
    C188    C    0.02906   0.23076   0.12815   1.000
    C189    C    0.84829   0.47495   0.82799   1.000
    C190    C    0.79200   0.57530   0.74658   1.000
    C191    C    0.15027   0.52677   0.93129   1.000
    C192    C    0.23399   0.64687   0.89762   1.000
    N193    N    0.33614   0.10138   0.83408   1.000
    N194    N    0.49533   0.36427   0.62565   1.000
    N195    N    0.11981   0.19981   0.52009   1.000
    N196    N    0.54092   0.06414   0.28128   1.000
    N197    N    0.35990   0.78407   0.53731   1.000
    N198    N    0.66073   0.88827   0.58886   1.000
    N199    N    0.16362   0.16562   0.89773   1.000
    N200    N    0.00337   0.37329   0.63448   1.000
    N201    N    0.37974   0.47993   0.79933   1.000
    N202    N    0.95923   0.71810   0.93506   1.000
    N203    N    0.14006   0.46207   0.21530   1.000
    N204    N    0.83944   0.41028   0.10990   1.000
    N205    N    0.66356   0.89777   0.16560   1.000
    N206    N    0.50335   0.63472   0.37347   1.000
    N207    N    0.87967   0.79952   0.47998   1.000
    N208    N    0.45910   0.93496   0.71821   1.000
    N209    N    0.64007   0.21524   0.46226   1.000
    N210    N    0.33940   0.10994   0.41044   1.000
    N211    N    0.83610   0.83411   0.10148   1.000
    N212    N    0.00000   0.62560   0.36427   1.000
    N213    N    0.61947   0.52015   0.19942   1.000
    N214    N    0.04080   0.28119   0.06413   1.000
    N215    N    0.85993   0.53722   0.78401   1.000
    N216    N    0.16072   0.58884   0.88821   1.000
    O217    O    0.44409   0.19743   0.83682   1.000
    O218    O    0.42653   0.31973   0.50021   1.000
    O219    O    0.40731   0.00848   0.25314   1.000
    O220    O    0.27638   0.83665   0.44462   1.000
    O221    O    0.70471   0.00000   0.51393   1.000
    O222    O    0.05533   0.16293   0.80217   1.000
    O223    O    0.07331   0.49852   0.67710   1.000
    O224    O    0.35473   0.45499   0.92782   1.000
    O225    O    0.09310   0.74605   0.00000   1.000
    O226    O    0.22376   0.55481   0.16299   1.000
    O227    O    0.79527   0.48645   0.01417   1.000
    O228    O    0.55535   0.80214   0.16300   1.000
    O229    O    0.57338   0.67714   0.49863   1.000
    O230    O    0.85475   0.92810   0.45516   1.000
    O231    O    0.59298   0.00000   0.74609   1.000
    O232    O    0.72361   0.16309   0.55524   1.000
    O233    O    0.29518   0.01419   0.48654   1.000
    O234    O    0.94407   0.83683   0.19750   1.000
    O235    O    0.92649   0.50013   0.31969   1.000
    O236    O    0.64415   0.54437   0.07058   1.000
    O237    O    0.90726   0.25292   0.00819   1.000
    O238    O    0.77638   0.44454   0.83660   1.000
    O239    O    0.20472   0.51385   0.00000   1.000
loop_
    _geom_bond_atom_site_label_1
    _geom_bond_atom_site_label_2
    _geom_bond_distance
    _geom_bond_site_symmetry_2
    _ccdc_geom_bond_type
    O239   C191      1.43788  1_554   S
    O225   C143      1.22735  1_554   S
    H83    C186      1.13148  1_554   S
    H35    C142      1.08845      .   S
    O237   C187      1.23631      .   S
    C187   N214      1.37340  1_655   S
    C187   C181      1.54479  1_654   S
    O227   C147      1.25908      .   S
    H76    C176      1.09968      .   S
    C142   C137      1.39857  1_655   S
    C142   C141      1.39842      .   S
    C137   C138      1.40592      .   S
    C137   C143      1.51143  1_554   S
    H75    C176      1.09858      .   S
    H41    C148      1.10133      .   S
    N214   H97       1.01811      .   S
    N214   C188      1.45149      .   S
    H40    C148      1.09511      .   S
    C147   C141      1.49297      .   S
    C147   N204      1.33699      .   S
    O236   C179      1.25489      .   S
    H52    C156      1.09972      .   S
    H94    N211      1.03474      .   S
    C176   N211      1.44824      .   S
    C141   C140      1.39397      .   S
    C156   H51       1.09850      .   S
    C156   N205      1.44891      .   S
    C138   H33       1.08873      .   S
    C138   C139      1.40369      .   S
    C148   N204      1.45662      .   S
    N211   C175      1.35622      .   S
    H85    C188      1.09789  1_655   S
    H74    C174      1.09146      .   S
    N204   H47       1.02183      .   S
    C140   C139      1.40156  1_655   S
    C140   H34       1.08580      .   S
    C188   H84       1.10124      .   S
    C139   C145      1.50473      .   S
    H79    C180      1.09843      .   S
    C179   C91       1.49955      .   S
    C179   N213      1.35203      .   S
    C174   C91       1.40639      .   S
    C174   C173      1.40001      .   S
    C175   C173      1.51036      .   S
    C175   O234      1.24110      .   S
    O226   C145      1.26024      .   S
    O228   C155      1.24088      .   S
    N205   H66       1.03464      .   S
    N205   C155      1.35643      .   S
    C145   N203      1.35224      .   S
    C180   N213      1.45185      .   S
    C180   H80       1.09926      .   S
    H13    C120      1.09769      .   S
    C91    C90       1.40317      .   S
    C173   C88       1.39964      .   S
    C155   C149      1.51012      .   S
    N213   H96       1.01829      .   S
    H12    C120      1.10124      .   S
    N203   H46       1.02800      .   S
    N203   C146      1.44837      .   S
    C120   N196      1.45138      .   S
    C90    H73       1.09166      .   S
    C90    C89       1.40351      .   S
    C88    H72       1.09023      .   S
    C88    C89       1.39481      .   S
    C146   H39       1.09990      .   S
    C146   H38       1.10118      .   S
    O219   C119      1.23650      .   S
    C89    C177      1.49798      .   S
    H48    C150      1.09025      .   S
    C149   C150      1.39990      .   S
    C149   C154      1.39969      .   S
    N196   C119      1.37308      .   S
    N196   H21       1.01804      .   S
    C119   C112      1.51071  1_545   S
    H65    C172      1.10131      .   S
    H50    C154      1.09146      .   S
    C150   C151      1.39499      .   S
    H67    N206      1.01974      .   S
    O235   C177      1.25290      .   S
    C154   C153      1.40634      .   S
    C177   N212      1.40448  1_655   S
    H9     C113      1.08870      .   S
    C172   H64       1.09512      .   S
    C172   N210      1.45662      .   S
    C112   C113      1.40547      .   S
    C112   C118      1.39849      .   S
    N212   H95       1.01954      .   S
    N212   C178      1.38950      .   S
    N206   C158      1.44875      .   S
    N206   C157      1.35149      .   S
    C113   C114      1.40319      .   S
    H63    C170      1.09988      .   S
    H78    C178      1.09975      .   S
    C151   C157      1.49865      .   S
    C151   C152      1.40377      .   S
    H54    C158      1.09962      .   S
    H77    C178      1.09751      .   S
    H11    C118      1.13062  1_545   S
    C153   C152      1.40320      .   S
    C153   C159      1.49923      .   S
    H71    N210      1.02185      .   S
    H7     C111      1.09825      .   S
    C158   H53       1.09749      .   S
    C118   C116      1.39857      .   S
    N210   C171      1.33692      .   S
    C157   O229      1.25276      .   S
    C170   N209      1.44849      .   S
    C170   H62       1.10122      .   S
    C152   H49       1.09175      .   S
    H8     C111      1.09923      .   S
    H70    N209      1.02810      .   S
    C159   O230      1.25481      .   S
    C159   N207      1.35214      .   S
    O220   C121      1.26011      .   S
    C114   C121      1.50455      .   S
    C114   C115      1.40107      .   S
    H58    C164      1.08576      .   S
    C111   N195      1.45156      .   S
    N209   C169      1.35222      .   S
    H68    N207      1.01831      .   S
    C116   C115      1.39390      .   S
    C116   C123      1.49319      .   S
    C171   O233      1.25899      .   S
    C171   C165      1.49284      .   S
    C121   N197      1.35208      .   S
    N207   C160      1.45167      .   S
    C115   H10       1.08566      .   S
    O218   C108      1.25293      .   S
    C164   C165      1.39397      .   S
    C164   C163      1.40111      .   S
    O221   C123      1.43605  1_545   S
    H1     C103      1.09162      .   S
    N195   H20       1.01824      .   S
    N195   C110      1.35205      .   S
    C169   C163      1.50470      .   S
    C169   O232      1.26015      .   S
    C165   C166      1.39844      .   S
    C123   N198      1.33718      .   S
    H5     C109      1.09751      .   S
    H14    C122      1.10134      .   S
    N197   H22       1.02810      .   S
    N197   C122      1.44827      .   S
    O117   C110      1.25506      .   S
    C160   H56       1.09901      .   S
    C160   H55       1.09819      .   S
    C163   C162      1.40365      .   S
    C110   C104      1.49942      .   S
    C103   C104      1.40315      .   S
    C103   C102      1.40332      .   S
    C122   H15       1.09993      .   S
    C108   C102      1.49786      .   S
    C108   N194      1.35114      .   S
    N198   H23       1.02182      .   S
    N198   C124      1.45699      .   S
    C134   H29       1.09751      .   S
    C134   H30       1.09964      .   S
    C134   N200      1.44874  1_655   S
    C109   H6        1.09972      .   S
    C109   N194      1.44831      .   S
    C166   H59       1.08841      .   S
    C166   C161      1.39857      .   S
    C104   C105      1.40637      .   S
    C102   C101      1.39479      .   S
    C162   C161      1.40554      .   S
    C162   H57       1.08870      .   S
    H16    C124      1.09523      .   S
    N194   H19       1.01991      .   S
    H43    N200      1.01992      .   S
    N200   C133      1.35174      .   S
    C161   C167      1.51109  1_545   S
    C124   H17       1.10130      .   S
    C133   O223      1.25288      .   S
    C133   C127      1.49857      .   S
    C105   H2        1.09148      .   S
    C105   C100      1.40009      .   S
    H69    N208      1.01801      .   S
    C101   C100      1.39964      .   S
    C101   H0        1.09022      .   S
    H86    C190      1.10133      .   S
    C167   N208      1.37311      .   S
    C167   O231      1.22757  1_565   S
    H87    C190      1.09990      .   S
    N208   C168      1.45126      .   S
    C100   C106      1.51041      .   S
    C127   C126      1.39498      .   S
    C127   C128      1.40379      .   S
    H24    C126      1.09024      .   S
    H44    N201      1.01830      .   S
    H25    C128      1.09175      .   S
    C190   N215      1.44824      .   S
    C126   C125      1.39990      .   S
    C128   C129      1.40312      .   S
    C168   H60       1.10124      .   S
    C168   H61       1.09770      .   S
    H32    C136      1.09900      .   S
    H98    N215      1.02810      .   S
    N215   C189      1.35201      .   S
    N201   C136      1.45175      .   S
    N201   C135      1.35206      .   S
    O222   C131      1.24088      .   S
    C106   N193      1.35617      .   S
    C106   O217      1.24108      .   S
    H18    N193      1.03475      .   S
    C125   C131      1.51001      .   S
    C125   C130      1.39963      .   S
    C129   C130      1.40635      .   S
    C129   C135      1.49905      .   S
    C136   H31       1.09818      .   S
    C189   O238      1.26014      .   S
    C189   C183      1.50437      .   S
    N193   C107      1.44825      .   S
    C131   N199      1.35645      .   S
    H99    N216      1.02180      .   S
    C130   H26       1.09147      .   S
    H82    C184      1.08565      .   S
    H36    C144      1.10122      .   S
    C135   O224      1.25478      .   S
    C183   C184      1.40136  1_655   S
    C183   C182      1.40317      .   S
    C144   H37       1.09792  1_655   S
    C144   N202      1.45123      .   S
    C184   C185      1.39380      .   S
    N216   C192      1.45702      .   S
    N216   C191      1.33709      .   S
    C192   H92       1.09523      .   S
    C192   H93       1.10130      .   S
    N199   C132      1.44881      .   S
    N199   H42       1.03460      .   S
    H3     C107      1.09858      .   S
    H81    C182      1.08870      .   S
    C182   C181      1.54558  1_655   S
    C107   H4        1.09970      .   S
    C185   C191      1.49301      .   S
    C185   C186      1.39860      .   S
    C132   H27       1.09852      .   S
    C132   H28       1.09972      .   S
    H45    N202      1.01801      .   S
    N202   C143      1.37344  1_655   S
    C181   C186      1.25675      .   S
