# CIF file generated by openbabel 2.4.90, see http://openbabel.sf.net
data_I
_chemical_name_common ''
_cell_length_a 16.167
_cell_length_b 16.49
_cell_length_c 16.492
_cell_angle_alpha 98.472
_cell_angle_beta 93.827
_cell_angle_gamma 93.835
_space_group_name_H-M_alt 'P 1'
_space_group_name_Hall 'P 1'
loop_
    _symmetry_equiv_pos_as_xyz
    x,y,z
loop_
    _atom_site_label
    _atom_site_type_symbol
    _atom_site_fract_x
    _atom_site_fract_y
    _atom_site_fract_z
    _atom_site_occupancy
    C0      C    0.37153   0.14815   0.98498   1.000
    C1      C    0.57590   0.49858   0.61612   1.000
    C2      C    0.97449   0.13559   0.47143   1.000
    C3      C    0.49143   0.20383   0.27448   1.000
    C4      C    0.23775   0.80622   0.62225   1.000
    C5      C    0.76376   0.81448   0.66481   1.000
    C6      C    0.12786   0.01485   0.85063   1.000
    C7      C    0.92395   0.38362   0.49966   1.000
    C8      C    0.52518   0.52837   0.86397   1.000
    C9      C    0.00891   0.72437   0.79536   1.000
    C10     C    0.26226   0.37711   0.19318   1.000
    C11     C    0.73612   0.33375   0.18268   1.000
    C12     C    0.62759   0.85047   0.01492   1.000
    C13     C    0.42397   0.49983   0.38365   1.000
    C14     C    0.02515   0.86404   0.52849   1.000
    C15     C    0.50888   0.79530   0.72440   1.000
    C16     C    0.76242   0.19313   0.37753   1.000
    C17     C    0.23618   0.18269   0.33380   1.000
    C18     C    0.87150   0.98502   0.14829   1.000
    C19     C    0.07587   0.61610   0.49857   1.000
    C20     C    0.47446   0.47106   0.13429   1.000
    C21     C    0.99137   0.27410   0.20381   1.000
    C22     C    0.73785   0.62224   0.80621   1.000
    C23     C    0.26376   0.66482   0.81444   1.000
