# CIF file generated by openbabel 2.4.90, see http://openbabel.sf.net
data_I
_chemical_name_common ''
_cell_length_a 16.167
_cell_length_b 16.49
_cell_length_c 16.492
_cell_angle_alpha 98.472
_cell_angle_beta 93.827
_cell_angle_gamma 93.835
_space_group_name_H-M_alt 'P 1'
_space_group_name_Hall 'P 1'
loop_
    _symmetry_equiv_pos_as_xyz
    x,y,z
loop_
    _atom_site_label
    _atom_site_type_symbol
    _atom_site_fract_x
    _atom_site_fract_y
    _atom_site_fract_z
    _atom_site_occupancy
    N0      N    0.06691   0.42236   0.67699   1.000
    N1      N    0.33428   0.44388   0.85203   1.000
    N2      N    0.17984   0.35144   0.78689   1.000
    O3      O    0.13090   0.38192   0.73841   1.000
    O4      O    0.24731   0.39141   0.81489   1.000
    N5      N    0.16480   0.14655   0.55582   1.000
    N6      N    0.43236   0.32093   0.57652   1.000
    N7      N    0.31945   0.21160   0.64803   1.000
    O8      O    0.36838   0.25985   0.61729   1.000
    O9      O    0.25190   0.18361   0.60816   1.000
    N10     N    0.34979   0.06764   0.47310   1.000
    N11     N    0.65170   0.17146   0.52471   1.000
    N12     N    0.50488   0.08460   0.57351   1.000
    O13     O    0.56870   0.12302   0.55271   1.000
    O14     O    0.43724   0.07786   0.53002   1.000
    N15     N    0.15180   0.52444   0.17144   1.000
    N16     N    0.84985   0.47296   0.06762   1.000
    N17     N    0.00500   0.57336   0.08464   1.000
    O18     O    0.93733   0.52987   0.07788   1.000
    O19     O    0.06880   0.55251   0.12303   1.000
    N20     N    0.34828   0.82804   0.47502   1.000
    N21     N    0.65028   0.93140   0.52683   1.000
    N22     N    0.49523   0.91524   0.42627   1.000
    O23     O    0.56285   0.92161   0.46983   1.000
    O24     O    0.43136   0.87664   0.44705   1.000
    N25     N    0.83426   0.85230   0.44399   1.000
    N26     N    0.56694   0.67715   0.42251   1.000
    N27     N    0.67984   0.78709   0.35154   1.000
    O28     O    0.63091   0.73859   0.38204   1.000
    O29     O    0.74730   0.81512   0.39151   1.000
    N30     N    0.15027   0.52677   0.93129   1.000
    N31     N    0.84829   0.47495   0.82799   1.000
    N32     N    0.99643   0.42619   0.91519   1.000
    O33     O    0.93196   0.44697   0.87658   1.000
    O34     O    0.06344   0.46976   0.92153   1.000
    N35     N    0.66479   0.55580   0.14635   1.000
    N36     N    0.93229   0.57646   0.32092   1.000
    N37     N    0.81940   0.64798   0.21160   1.000
    O38     O    0.75186   0.60813   0.18354   1.000
    O39     O    0.86831   0.61724   0.25985   1.000
    Zr40    Zr   0.37117   0.32478   0.21138   1.000
    O41     O    0.37004   0.21605   0.05793   1.000
    O42     O    0.40538   0.45343   0.30148   1.000
    O43     O    0.39503   0.32383   0.33811   1.000
    O44     O    0.32255   0.22245   0.28346   1.000
    O45     O    0.44269   0.22292   0.23176   1.000
    O46     O    0.46159   0.39447   0.19385   1.000
    O47     O    0.30168   0.41624   0.11379   1.000
    O48     O    0.35793   0.39417   0.08672   1.000
    Zr49    Zr   0.12874   0.78768   0.67393   1.000
    O50     O    0.09455   0.69767   0.54525   1.000
    O51     O    0.17738   0.71572   0.77568   1.000
    O52     O    0.12971   0.94146   0.78283   1.000
    O53     O    0.03797   0.80535   0.60488   1.000
    O54     O    0.19818   0.89092   0.58314   1.000
    O55     O    0.14141   0.91216   0.60485   1.000
    O56     O    0.05734   0.76732   0.77628   1.000
    O57     O    0.10489   0.66082   0.67412   1.000
    Zr58    Zr   0.87119   0.21153   0.32498   1.000
    O59     O    0.85798   0.08696   0.39444   1.000
    O60     O    0.80172   0.11392   0.41648   1.000
    O61     O    0.90539   0.30148   0.45343   1.000
    O62     O    0.96173   0.19423   0.39461   1.000
    O63     O    0.87004   0.05802   0.21621   1.000
    O64     O    0.94265   0.23171   0.22298   1.000
    O65     O    0.89502   0.33813   0.32391   1.000
    O66     O    0.82257   0.28346   0.22254   1.000
    Zr67    Zr   0.62873   0.67388   0.78769   1.000
    O68     O    0.59408   0.54522   0.69769   1.000
    O69     O    0.60491   0.67411   0.66087   1.000
    O70     O    0.62964   0.78278   0.94147   1.000
    O71     O    0.53800   0.60482   0.80532   1.000
    O72     O    0.67737   0.77567   0.71573   1.000
    O73     O    0.64155   0.60478   0.91206   1.000
    O74     O    0.69822   0.58306   0.89090   1.000
    O75     O    0.55728   0.77620   0.76735   1.000
    O76     O    0.29813   0.40125   0.19993   1.000
    O77     O    0.20181   0.79931   0.59778   1.000
    O78     O    0.79815   0.20004   0.40155   1.000
    O79     O    0.70182   0.59771   0.79929   1.000
loop_
    _geom_bond_atom_site_label_1
    _geom_bond_atom_site_label_2
    _geom_bond_distance
    _geom_bond_site_symmetry_2
    _ccdc_geom_bond_type
    N2     O3        1.26700      .   S
    N0     O3        1.64080      .   S
    N2     O4        1.25866      .   S
    N1     O4        1.63305      .   S
    N7     O8        1.26641      .   S
    N6     O8        1.64002      .   S
    N7     O9        1.25909      .   S
    N5     O9        1.63361      .   S
    N12    O13       1.26782      .   S
    N11    O13       1.64324      .   S
    N12    O14       1.25625      .   S
    N10    O14       1.62879      .   S
    N17    O18       1.25639  1_455   S
    N16    O18       1.62896      .   S
    N17    O19       1.26795      .   S
    N15    O19       1.64338      .   S
    N22    O23       1.25685      .   S
    N21    O23       1.62944      .   S
    N22    O24       1.26992      .   S
    N20    O24       1.64525      .   S
    N27    O28       1.26710      .   S
    N26    O28       1.64093      .   S
    N27    O29       1.25877      .   S
    N25    O29       1.63321      .   S
    N32    O33       1.27775      .   S
    N31    O33       1.65308      .   S
    N32    O34       1.24883  1_655   S
    N30    O34       1.62141      .   S
    N37    O38       1.25909      .   S
    N35    O38       1.63363      .   S
    N37    O39       1.26648      .   S
    N36    O39       1.64012      .   S
    Zr40   O41       2.87620      .   S
    N7     O41       6.74396  1_556   S
    Zr40   O42       2.41218      .   S
    N26    O42       4.50130      .   S
    Zr40   O43       2.10225      .   S
    N6     O43       3.94582      .   S
    Zr40   O44       2.32736      .   S
    N10    O44       4.33718      .   S
    Zr40   O45       2.15523      .   S
    N22    O45       6.46243  1_565   S
    Zr40   O46       1.86299      .   S
    N35    O46       4.27449      .   S
    Zr40   O47       2.61298      .   S
    N30    O47       4.42755  1_556   S
    Zr40   O48       2.49978      .   S
    N1     O48       4.07177  1_556   S
    Zr49   O50       2.41205      .   S
    N36    O50       4.51540  1_655   S
    Zr49   O51       2.31898      .   S
    N30    O51       4.33696      .   S
    Zr49   O52       2.88180      .   S
    N2     O52       6.74491  1_545   S
    Zr49   O53       1.86201      .   S
    N25    O53       4.27389  1_655   S
    Zr49   O54       2.66839      .   S
    N10    O54       4.35770  1_545   S
    Zr49   O55       2.49348      .   S
    N5     O55       4.06228  1_545   S
    Zr49   O56       2.16094      .   S
    N17    O56       6.46618  1_554   S
    Zr49   O57       2.10223      .   S
    N0     O57       3.94672      .   S
    Zr58   O59       2.49893      .   S
    N25    O59       4.06980  1_565   S
    Zr58   O60       2.61328      .   S
    N21    O60       4.42591  1_565   S
    Zr58   O61       2.40866      .   S
    N0     O61       4.49877  1_455   S
    Zr58   O62       1.86302      .   S
    N5     O62       4.27318  1_455   S
    Zr58   O63       2.87700      .   S
    N37    O63       6.74497  1_565   S
    Zr58   O64       2.15601      .   S
    N32    O64       6.46679  1_556   S
    Zr58   O65       2.10031      .   S
    N36    O65       3.94388      .   S
    Zr58   O66       2.32746      .   S
    N16    O66       4.33646      .   S
    Zr67   O68       2.41237      .   S
    N6     O68       4.51000      .   S
    Zr67   O69       2.10175      .   S
    N26    O69       3.94620      .   S
    Zr67   O70       2.88210      .   S
    N27    O70       6.74681  1_554   S
    Zr67   O71       1.86110      .   S
    N1     O71       4.27272      .   S
    Zr67   O72       2.31938      .   S
    N21    O72       4.33783      .   S
    Zr67   O73       2.49230      .   S
    N35    O73       4.06086  1_554   S
    Zr67   O74       2.66894      .   S
    N16    O74       4.35894  1_554   S
    Zr67   O75       2.16090      .   S
    N12    O75       6.46564  1_545   S
    Zr40   O76       1.80550      .   S
    N15    O76       3.27416      .   S
    Zr49   O77       1.80231      .   S
    N20    O77       3.27146      .   S
    Zr58   O78       1.80688      .   S
    N11    O78       3.27526      .   S
    N31    O79       3.27152      .   S
    Zr67   O79       1.80266      .   S
