# CIF file generated by openbabel 2.4.90, see http://openbabel.sf.net
data_I
_chemical_name_common ''
_cell_length_a 16.167
_cell_length_b 16.49
_cell_length_c 16.492
_cell_angle_alpha 98.472
_cell_angle_beta 93.827
_cell_angle_gamma 93.835
_space_group_name_H-M_alt 'P 1'
_space_group_name_Hall 'P 1'
loop_
    _symmetry_equiv_pos_as_xyz
    x,y,z
loop_
    _atom_site_label
    _atom_site_type_symbol
    _atom_site_fract_x
    _atom_site_fract_y
    _atom_site_fract_z
    _atom_site_occupancy
    Zr0     Zr   0.38804   0.27555   0.11093   1.000
    Zr1     Zr   0.39597   0.33236   0.35868   1.000
    Zr2     Zr   0.81485   0.06527   0.49013   1.000
    Zr3     Zr   0.11188   0.88843   0.72357   1.000
    Zr4     Zr   0.10420   0.64025   0.66591   1.000
    Zr5     Zr   0.68503   0.50964   0.93396   1.000
    Zr6     Zr   0.61186   0.72347   0.88845   1.000
    Zr7     Zr   0.60424   0.66593   0.64034   1.000
    Zr8     Zr   0.18493   0.93408   0.50977   1.000
    Zr9     Zr   0.88827   0.11065   0.27607   1.000
    Zr10    Zr   0.89589   0.35855   0.33227   1.000
    Zr11    Zr   0.31459   0.48925   0.06481   1.000
    Zr12    Zr   0.37153   0.14815   0.98498   1.000
    Zr13    Zr   0.57590   0.49858   0.61612   1.000
    Zr14    Zr   0.97449   0.13559   0.47143   1.000
    Zr15    Zr   0.49143   0.20383   0.27448   1.000
    Zr16    Zr   0.23775   0.80622   0.62225   1.000
    Zr17    Zr   0.76376   0.81448   0.66481   1.000
    Zr18    Zr   0.12786   0.01485   0.85063   1.000
    Zr19    Zr   0.92395   0.38362   0.49966   1.000
    Zr20    Zr   0.52518   0.52837   0.86397   1.000
    Zr21    Zr   0.00891   0.72437   0.79536   1.000
    Zr22    Zr   0.26226   0.37711   0.19318   1.000
    Zr23    Zr   0.73612   0.33375   0.18268   1.000
    Zr24    Zr   0.62759   0.85047   0.01492   1.000
    Zr25    Zr   0.42397   0.49983   0.38365   1.000
    Zr26    Zr   0.02515   0.86404   0.52849   1.000
    Zr27    Zr   0.50888   0.79530   0.72440   1.000
    Zr28    Zr   0.76242   0.19313   0.37753   1.000
    Zr29    Zr   0.23618   0.18269   0.33380   1.000
    Zr30    Zr   0.87150   0.98502   0.14829   1.000
    Zr31    Zr   0.07587   0.61610   0.49857   1.000
    Zr32    Zr   0.47446   0.47106   0.13429   1.000
    Zr33    Zr   0.99137   0.27410   0.20381   1.000
    Zr34    Zr   0.73785   0.62224   0.80621   1.000
    Zr35    Zr   0.26376   0.66482   0.81444   1.000
    Zr36    Zr   0.31976   0.20461   0.98569   1.000
    Zr37    Zr   0.42362   0.14622   0.04535   1.000
    Zr38    Zr   0.64542   0.53161   0.60082   1.000
    Zr39    Zr   0.51728   0.53833   0.64595   1.000
    Zr40    Zr   0.94755   0.14556   0.54163   1.000
    Zr41    Zr   0.93102   0.09401   0.40795   1.000
    Zr42    Zr   0.49279   0.21833   0.35267   1.000
    Zr43    Zr   0.45875   0.25263   0.23067   1.000
    Zr44    Zr   0.17822   0.77437   0.65661   1.000
    Zr45    Zr   0.25093   0.88414   0.62593   1.000
    Zr46    Zr   0.71603   0.75071   0.63224   1.000
    Zr47    Zr   0.82984   0.81604   0.70826   1.000
    Zr48    Zr   0.18022   0.01394   0.79472   1.000
    Zr49    Zr   0.07512   0.95479   0.85175   1.000
    Zr50    Zr   0.85481   0.39926   0.46609   1.000
    Zr51    Zr   0.98287   0.35389   0.46034   1.000
    Zr52    Zr   0.55210   0.45818   0.85415   1.000
    Zr53    Zr   0.56884   0.59193   0.90520   1.000
    Zr54    Zr   0.00761   0.64616   0.78110   1.000
    Zr55    Zr   0.04172   0.76799   0.74649   1.000
    Zr56    Zr   0.32215   0.34332   0.22512   1.000
    Zr57    Zr   0.24870   0.37285   0.11524   1.000
    Zr58    Zr   0.78447   0.36461   0.24654   1.000
    Zr59    Zr   0.66933   0.29132   0.18073   1.000
    Zr60    Zr   0.68018   0.79475   0.01391   1.000
    Zr61    Zr   0.57456   0.85132   0.95504   1.000
    Zr62    Zr   0.35487   0.46618   0.39932   1.000
    Zr63    Zr   0.48289   0.46061   0.35380   1.000
    Zr64    Zr   0.05211   0.85420   0.45832   1.000
    Zr65    Zr   0.06876   0.90531   0.59206   1.000
    Zr66    Zr   0.50759   0.78107   0.64620   1.000
    Zr67    Zr   0.54177   0.74645   0.76800   1.000
    Zr68    Zr   0.82209   0.22497   0.34335   1.000
    Zr69    Zr   0.74916   0.11522   0.37386   1.000
    Zr70    Zr   0.28454   0.24657   0.36465   1.000
    Zr71    Zr   0.16945   0.18073   0.29130   1.000
    Zr72    Zr   0.81971   0.98571   0.20474   1.000
    Zr73    Zr   0.92362   0.04538   0.14643   1.000
    Zr74    Zr   0.14539   0.60080   0.53159   1.000
    Zr75    Zr   0.01728   0.64595   0.53834   1.000
    Zr76    Zr   0.44776   0.54138   0.14267   1.000
    Zr77    Zr   0.43084   0.40709   0.09380   1.000
    Zr78    Zr   0.99266   0.35230   0.21835   1.000
    Zr79    Zr   0.95885   0.23022   0.25265   1.000
    Zr80    Zr   0.67835   0.65665   0.77438   1.000
    Zr81    Zr   0.75102   0.62587   0.88411   1.000
    Zr82    Zr   0.21602   0.63226   0.75068   1.000
    Zr83    Zr   0.32985   0.70826   0.81600   1.000
    O84     O    0.65389   0.82261   0.01442   1.000
    O85     O    0.60108   0.85090   0.98498   1.000
    O86     O    0.39757   0.14719   0.01516   1.000
    O87     O    0.40944   0.34132   0.10237   1.000
    O88     O    0.45265   0.43908   0.11405   1.000
    O89     O    0.42340   0.26409   0.17080   1.000
    O90     O    0.25548   0.37498   0.15421   1.000
    O91     O    0.46111   0.50622   0.13848   1.000
    O92     O    0.89756   0.01520   0.14736   1.000
    O93     O    0.84560   0.98536   0.17652   1.000
    O94     O    0.70272   0.31254   0.18170   1.000
    O95     O    0.76029   0.34918   0.21461   1.000
    O96     O    0.29220   0.36022   0.20915   1.000
    O97     O    0.99202   0.31320   0.21108   1.000
    O98     O    0.97511   0.25216   0.22823   1.000
    O99     O    0.47509   0.22823   0.25257   1.000
    O100    O    0.84018   0.36158   0.28941   1.000
    O101    O    0.92356   0.17043   0.26436   1.000
    O102    O    0.49211   0.21108   0.31357   1.000
    O103    O    0.90964   0.10233   0.34201   1.000
    O104    O    0.20281   0.18171   0.31255   1.000
    O105    O    0.87535   0.37891   0.39918   1.000
    O106    O    0.26036   0.21463   0.34923   1.000
    O107    O    0.79225   0.20905   0.36044   1.000
    O108    O    0.45343   0.48022   0.36872   1.000
    O109    O    0.34026   0.28947   0.36166   1.000
    O110    O    0.37542   0.39927   0.37900   1.000
    O111    O    0.75579   0.15417   0.37570   1.000
    O112    O    0.38942   0.48301   0.39148   1.000
    O113    O    0.95276   0.11480   0.43969   1.000
    O114    O    0.03863   0.85912   0.49340   1.000
    O115    O    0.95341   0.36876   0.48000   1.000
    O116    O    0.88938   0.39144   0.48287   1.000
    O117    O    0.96102   0.14058   0.50653   1.000
    O118    O    0.11063   0.60845   0.51508   1.000
    O119    O    0.04657   0.63102   0.51845   1.000
    O120    O    0.04695   0.88468   0.56028   1.000
    O121    O    0.12480   0.62053   0.59875   1.000
    O122    O    0.09032   0.89687   0.65782   1.000
    O123    O    0.61066   0.51510   0.60847   1.000
    O124    O    0.62483   0.59877   0.62058   1.000
    O125    O    0.54659   0.51845   0.63103   1.000
    O126    O    0.24434   0.84518   0.62409   1.000
    O127    O    0.20799   0.79030   0.63943   1.000
    O128    O    0.66013   0.70832   0.63629   1.000
    O129    O    0.73989   0.78259   0.64853   1.000
    O130    O    0.50823   0.78819   0.68530   1.000
    O131    O    0.79680   0.81526   0.68654   1.000
    O132    O    0.16011   0.63625   0.70830   1.000
    O133    O    0.07680   0.82821   0.73503   1.000
    O134    O    0.52532   0.77087   0.74620   1.000
    O135    O    0.02531   0.74618   0.77092   1.000
    O136    O    0.23989   0.64854   0.78256   1.000
    O137    O    0.57681   0.73496   0.82822   1.000
    O138    O    0.70810   0.63945   0.79030   1.000
    O139    O    0.00826   0.68527   0.78823   1.000
    O140    O    0.15404   0.01440   0.82268   1.000
    O141    O    0.74443   0.62405   0.84516   1.000
    O142    O    0.29680   0.68654   0.81522   1.000
    O143    O    0.10149   0.98482   0.85119   1.000
    O144    O    0.53864   0.49327   0.85906   1.000
    O145    O    0.54701   0.56015   0.88458   1.000
    O146    O    0.59035   0.65770   0.89682   1.000
    O147    O    0.34564   0.17638   0.98533   1.000
    O148    O    0.35390   0.24008   0.04831   1.000
    O149    O    0.40583   0.21089   0.07814   1.000
    O150    O    0.56076   0.60213   0.64314   1.000
    O151    O    0.88120   0.10542   0.51588   1.000
    O152    O    0.87293   0.07964   0.44904   1.000
    O153    O    0.44438   0.27534   0.35567   1.000
    O154    O    0.42736   0.29250   0.29468   1.000
    O155    O    0.14505   0.83140   0.69009   1.000
    O156    O    0.14121   0.70731   0.66126   1.000
    O157    O    0.18141   0.88629   0.67475   1.000
    O158    O    0.21793   0.90911   0.56785   1.000
    O159    O    0.14605   0.95118   0.75915   1.000
    O160    O    0.09350   0.92161   0.78766   1.000
    O161    O    0.93938   0.35622   0.39631   1.000
    O162    O    0.61857   0.48391   0.89406   1.000
    O163    O    0.62693   0.55078   0.91958   1.000
    O164    O    0.05590   0.64321   0.72350   1.000
    O165    O    0.07296   0.70412   0.70620   1.000
    O166    O    0.35509   0.30943   0.16803   1.000
    O167    O    0.35906   0.33784   0.29190   1.000
    O168    O    0.31837   0.32420   0.11309   1.000
    O169    O    0.28164   0.43105   0.09002   1.000
    O170    O    0.64602   0.75911   0.95118   1.000
    O171    O    0.59321   0.78740   0.92174   1.000
    O172    O    0.43943   0.39649   0.35624   1.000
    O173    O    0.11852   0.89414   0.48405   1.000
    O174    O    0.12685   0.91969   0.55092   1.000
    O175    O    0.55591   0.72350   0.64327   1.000
    O176    O    0.57300   0.70619   0.70417   1.000
    O177    O    0.85518   0.16781   0.30971   1.000
    O178    O    0.85899   0.29176   0.33781   1.000
    O179    O    0.78200   0.09024   0.43199   1.000
    O180    O    0.81872   0.11293   0.32497   1.000
    O181    O    0.85399   0.04818   0.24041   1.000
    O182    O    0.90595   0.07801   0.21125   1.000
    O183    O    0.06074   0.64310   0.60213   1.000
    O184    O    0.38117   0.51531   0.10374   1.000
    O185    O    0.37271   0.44817   0.07930   1.000
    O186    O    0.94428   0.35543   0.27531   1.000
    O187    O    0.92737   0.29439   0.29246   1.000
    O188    O    0.64511   0.69006   0.83142   1.000
    O189    O    0.64130   0.66129   0.70736   1.000
    O190    O    0.71802   0.56775   0.90903   1.000
    O191    O    0.68144   0.67467   0.88628   1.000
    N192    N    0.06691   0.42236   0.67699   1.000
    N193    N    0.33428   0.44388   0.85203   1.000
    N194    N    0.17984   0.35144   0.78689   1.000
    O195    O    0.13090   0.38192   0.73841   1.000
    O196    O    0.24731   0.39141   0.81489   1.000
    O197    O    0.08103   0.53395   0.67430   1.000
    O198    O    0.34470   0.46355   0.96206   1.000
    O199    O    0.93959   0.39144   0.58188   1.000
    O200    O    0.44727   0.53577   0.82295   1.000
    O201    O    0.13068   0.09524   0.89173   1.000
    N202    N    0.16480   0.14655   0.55582   1.000
    N203    N    0.43236   0.32093   0.57652   1.000
    N204    N    0.31945   0.21160   0.64803   1.000
    O205    O    0.36838   0.25985   0.61729   1.000
    O206    O    0.25190   0.18361   0.60816   1.000
    O207    O    0.15408   0.03665   0.53577   1.000
    O208    O    0.05228   0.17693   0.46424   1.000
    O209    O    0.41889   0.32289   0.46483   1.000
    O210    O    0.55944   0.41657   0.60770   1.000
    O211    O    0.36892   0.10732   0.90447   1.000
    N212    N    0.34979   0.06764   0.47310   1.000
    N213    N    0.65170   0.17146   0.52471   1.000
    N214    N    0.50488   0.08460   0.57351   1.000
    O215    O    0.56870   0.12302   0.55271   1.000
    O216    O    0.43724   0.07786   0.53002   1.000
    O217    O    0.48583   0.87852   0.74701   1.000
    O218    O    0.26762   0.99416   0.49235   1.000
    O219    O    0.74642   0.13864   0.53896   1.000
    O220    O    0.27393   0.12012   0.35554   1.000
    O221    O    0.70378   0.23846   0.41728   1.000
    N222    N    0.15180   0.52444   0.17144   1.000
    N223    N    0.84985   0.47296   0.06762   1.000
    N224    N    0.00500   0.57336   0.08464   1.000
    O225    O    0.93733   0.52987   0.07788   1.000
    O226    O    0.06880   0.55251   0.12303   1.000
    O227    O    0.98594   0.74696   0.87863   1.000
    O228    O    0.77394   0.35539   0.12010   1.000
    O229    O    0.24647   0.53842   0.13844   1.000
    O230    O    0.20371   0.41702   0.23851   1.000
    O231    O    0.76771   0.49224   0.99411   1.000
    N232    N    0.34828   0.82804   0.47502   1.000
    N233    N    0.65028   0.93140   0.52683   1.000
    N234    N    0.49523   0.91524   0.42627   1.000
    O235    O    0.56285   0.92161   0.46983   1.000
    O236    O    0.43136   0.87664   0.44705   1.000
    O237    O    0.72601   0.87747   0.64377   1.000
    O238    O    0.73225   0.01632   0.50798   1.000
    O239    O    0.25352   0.86101   0.46091   1.000
    O240    O    0.51421   0.12107   0.25213   1.000
    O241    O    0.29624   0.76087   0.58234   1.000
    N242    N    0.83426   0.85230   0.44399   1.000
    N243    N    0.56694   0.67715   0.42251   1.000
    N244    N    0.67984   0.78709   0.35154   1.000
    O245    O    0.63091   0.73859   0.38204   1.000
    O246    O    0.74730   0.81512   0.39151   1.000
    O247    O    0.63055   0.89168   0.09525   1.000
    O248    O    0.43959   0.58208   0.39157   1.000
    O249    O    0.94720   0.82303   0.53584   1.000
    O250    O    0.84478   0.96239   0.46390   1.000
    O251    O    0.58110   0.67434   0.53406   1.000
    N252    N    0.15027   0.52677   0.93129   1.000
    N253    N    0.84829   0.47495   0.82799   1.000
    N254    N    0.99643   0.42619   0.91519   1.000
    O255    O    0.93196   0.44697   0.87658   1.000
    O256    O    0.06344   0.46976   0.92153   1.000
    O257    O    0.23218   0.50770   0.01620   1.000
    O258    O    0.75354   0.46082   0.86094   1.000
    O259    O    0.79629   0.58228   0.76084   1.000
    O260    O    0.01412   0.25188   0.12097   1.000
    O261    O    0.22602   0.64375   0.87742   1.000
    N262    N    0.66479   0.55580   0.14635   1.000
    N263    N    0.93229   0.57646   0.32092   1.000
    N264    N    0.81940   0.64798   0.21160   1.000
    O265    O    0.75186   0.60813   0.18354   1.000
    O266    O    0.86831   0.61724   0.25985   1.000
    O267    O    0.55200   0.46416   0.17632   1.000
    O268    O    0.86889   0.90452   0.10744   1.000
    O269    O    0.65437   0.53569   0.03643   1.000
    O270    O    0.91884   0.46474   0.32284   1.000
    O271    O    0.06036   0.60766   0.41657   1.000
loop_
    _geom_bond_atom_site_label_1
    _geom_bond_atom_site_label_2
    _geom_bond_distance
    _geom_bond_site_symmetry_2
    _ccdc_geom_bond_type
    Zr60   O84       0.64598      .   S
    Zr24   O84       0.64598      .   S
    Zr24   O85       0.63309  1_554   S
    Zr61   O85       0.63309      .   S
    Zr37   O86       0.63299      .   S
    Zr12   O86       0.63299  1_556   S
    Zr77   O87       1.14778      .   S
    Zr0    O87       1.14778      .   S
    Zr77   O88       0.64925      .   S
    Zr32   O88       0.64925      .   S
    Zr0    O89       1.15388      .   S
    Zr43   O89       1.15388      .   S
    Zr57   O90       0.64013      .   S
    Zr22   O90       0.64013      .   S
    Zr32   O91       0.62805      .   S
    Zr76   O91       0.62805      .   S
    Zr73   O92       0.63286      .   S
    Zr30   O92       0.63286  1_565   S
    Zr30   O93       0.64612      .   S
    Zr72   O93       0.64612      .   S
    Zr59   O94       0.62128      .   S
    Zr23   O94       0.62128      .   S
    Zr23   O95       0.64389      .   S
    Zr58   O95       0.64389      .   S
    Zr22   O96       0.63557      .   S
    Zr56   O96       0.63557      .   S
    Zr33   O97       0.63743      .   S
    Zr78   O97       0.63743      .   S
    Zr33   O98       0.63758      .   S
    Zr79   O98       0.63758      .   S
    Zr43   O99       0.63756      .   S
    Zr15   O99       0.63756      .   S
    Zr58   O100      1.11572      .   S
    Zr10   O100      1.11572      .   S
    Zr79   O101      1.15341      .   S
    Zr9    O101      1.15341      .   S
    Zr15   O102      0.63741      .   S
    Zr42   O102      0.63741      .   S
    Zr9    O103      1.14937      .   S
    Zr41   O103      1.14937      .   S
    Zr71   O104      0.62126      .   S
    Zr29   O104      0.62126      .   S
    Zr10   O105      1.18116      .   S
    Zr50   O105      1.18116      .   S
    Zr29   O106      0.64390      .   S
    Zr70   O106      0.64390      .   S
    Zr68   O107      0.63559      .   S
    Zr28   O107      0.63559      .   S
    Zr63   O108      0.63622      .   S
    Zr25   O108      0.63622      .   S
    Zr1    O109      1.11587      .   S
    Zr70   O109      1.11587      .   S
    Zr1    O110      1.18112      .   S
    Zr62   O110      1.18112      .   S
    Zr69   O111      0.64008      .   S
    Zr28   O111      0.64008      .   S
    Zr25   O112      0.63649      .   S
    Zr62   O112      0.63649      .   S
    Zr41   O113      0.64922      .   S
    Zr14   O113      0.64922      .   S
    Zr64   O114      0.62791      .   S
    Zr26   O114      0.62791      .   S
    Zr51   O115      0.63626      .   S
    Zr19   O115      0.63626      .   S
    Zr50   O116      0.63651      .   S
    Zr19   O116      0.63651      .   S
    Zr14   O117      0.62804      .   S
    Zr40   O117      0.62804      .   S
    Zr31   O118      0.63641      .   S
    Zr74   O118      0.63641      .   S
    Zr31   O119      0.63638      .   S
    Zr75   O119      0.63638      .   S
    Zr26   O120      0.64929      .   S
    Zr65   O120      0.64929      .   S
    Zr74   O121      1.18369      .   S
    Zr4    O121      1.18369      .   S
    Zr65   O122      1.14776      .   S
    Zr3    O122      1.14776      .   S
    Zr38   O123      0.63639      .   S
    Zr13   O123      0.63639      .   S
    Zr38   O124      1.18361      .   S
    Zr7    O124      1.18361      .   S
    Zr13   O125      0.63638      .   S
    Zr39   O125      0.63638      .   S
    Zr16   O126      0.64008      .   S
    Zr45   O126      0.64008      .   S
    Zr16   O127      0.63559      .   S
    Zr44   O127      0.63559      .   S
    Zr46   O128      1.11664      .   S
    Zr7    O128      1.11664      .   S
    Zr46   O129      0.64413      .   S
    Zr17   O129      0.64413      .   S
    Zr66   O130      0.63740      .   S
    Zr27   O130      0.63740      .   S
    Zr17   O131      0.62136      .   S
    Zr47   O131      0.62136      .   S
    Zr4    O132      1.11671      .   S
    Zr82   O132      1.11671      .   S
    Zr3    O133      1.15655      .   S
    Zr55   O133      1.15655      .   S
    Zr27   O134      0.63747      .   S
    Zr67   O134      0.63747      .   S
    Zr55   O135      0.63746      .   S
    Zr21   O135      0.63746      .   S
    Zr82   O136      0.64416      .   S
    Zr35   O136      0.64416      .   S
    Zr67   O137      1.15676      .   S
    Zr6    O137      1.15676      .   S
    Zr80   O138      0.63559      .   S
    Zr34   O138      0.63559      .   S
    Zr54   O139      0.63740      .   S
    Zr21   O139      0.63740      .   S
    Zr48   O140      0.64595      .   S
    Zr18   O140      0.64595      .   S
    Zr34   O141      0.64005      .   S
    Zr81   O141      0.64005      .   S
    Zr35   O142      0.62135      .   S
    Zr83   O142      0.62135      .   S
    Zr18   O143      0.63299  1_545   S
    Zr49   O143      0.63299      .   S
    Zr52   O144      0.62786      .   S
    Zr20   O144      0.62786      .   S
    Zr20   O145      0.64924      .   S
    Zr53   O145      0.64924      .   S
    Zr6    O146      1.14733      .   S
    Zr53   O146      1.14733      .   S
    Zr12   O147      0.64607      .   S
    Zr36   O147      0.64607      .   S
    Zr36   O148      1.18996  1_556   S
    Zr0    O148      1.18996      .   S
    Zr37   O149      1.18488      .   S
    Zr0    O149      1.18488      .   S
    Zr39   O150      1.23404      .   S
    Zr7    O150      1.23404      .   S
    Zr40   O151      1.23722      .   S
    Zr2    O151      1.23722      .   S
    Zr41   O152      1.22460      .   S
    Zr2    O152      1.22460      .   S
    Zr42   O153      1.26051      .   S
    Zr1    O153      1.26051      .   S
    Zr43   O154      1.30973      .   S
    Zr1    O154      1.30973      .   S
    Zr44   O155      1.19617      .   S
    Zr3    O155      1.19617      .   S
    Zr44   O156      1.23670      .   S
    Zr4    O156      1.23670      .   S
    Zr45   O157      1.42504      .   S
    Zr3    O157      1.42504      .   S
    Zr45   O158      1.20367      .   S
    Zr8    O158      1.20367      .   S
    Zr48   O159      1.19236  1_545   S
    Zr3    O159      1.19236      .   S
    Zr49   O160      1.18243      .   S
    Zr3    O160      1.18243      .   S
    Zr51   O161      1.23595      .   S
    Zr10   O161      1.23595      .   S
    Zr52   O162      1.23691      .   S
    Zr5    O162      1.23691      .   S
    Zr53   O163      1.22545      .   S
    Zr5    O163      1.22545      .   S
    Zr54   O164      1.26671      .   S
    Zr4    O164      1.26671      .   S
    Zr55   O165      1.30981      .   S
    Zr4    O165      1.30981      .   S
    Zr56   O166      1.19765      .   S
    Zr0    O166      1.19765      .   S
    Zr56   O167      1.23529      .   S
    Zr1    O167      1.23529      .   S
    Zr57   O168      1.42526      .   S
    Zr0    O168      1.42526      .   S
    Zr57   O169      1.20680      .   S
    Zr11   O169      1.20680      .   S
    Zr60   O170      1.19242  1_554   S
    Zr6    O170      1.19242      .   S
    Zr61   O171      1.18222      .   S
    Zr6    O171      1.18222      .   S
    Zr63   O172      1.23704      .   S
    Zr1    O172      1.23704      .   S
    Zr64   O173      1.23647      .   S
    Zr8    O173      1.23647      .   S
    Zr65   O174      1.22527      .   S
    Zr8    O174      1.22527      .   S
    Zr66   O175      1.26676      .   S
    Zr7    O175      1.26676      .   S
    Zr67   O176      1.30912      .   S
    Zr7    O176      1.30912      .   S
    Zr68   O177      1.19814      .   S
    Zr9    O177      1.19814      .   S
    Zr68   O178      1.23547      .   S
    Zr10   O178      1.23547      .   S
    Zr69   O179      1.20343      .   S
    Zr2    O179      1.20343      .   S
    Zr69   O180      1.42615      .   S
    Zr9    O180      1.42615      .   S
    Zr72   O181      1.18985  1_565   S
    Zr9    O181      1.18985      .   S
    Zr73   O182      1.18569      .   S
    Zr9    O182      1.18569      .   S
    Zr75   O183      1.23405      .   S
    Zr4    O183      1.23405      .   S
    Zr76   O184      1.23306      .   S
    Zr11   O184      1.23306      .   S
    Zr77   O185      1.22554      .   S
    Zr11   O185      1.22554      .   S
    Zr78   O186      1.25948      .   S
    Zr10   O186      1.25948      .   S
    Zr79   O187      1.31213      .   S
    Zr10   O187      1.31213      .   S
    Zr80   O188      1.19645      .   S
    Zr6    O188      1.19645      .   S
    Zr80   O189      1.23663      .   S
    Zr7    O189      1.23663      .   S
    Zr81   O190      1.20368      .   S
    Zr5    O190      1.20368      .   S
    Zr81   O191      1.42561      .   S
    Zr6    O191      1.42561      .   S
    N194   O195      1.26700      .   S
    N192   O195      1.64080      .   S
    N194   O196      1.25866      .   S
    N193   O196      1.63305      .   S
    N192   O197      1.84642      .   S
    Zr4    O197      1.79515      .   S
    N193   O198      1.79034      .   S
    Zr11   O198      1.79268  1_554   S
    N192   O199      2.47999  1_455   S
    Zr19   O199      1.34823      .   S
    N193   O200      2.41326      .   S
    Zr20   O200      1.41074      .   S
    N194   O201      4.83289      .   S
    Zr18   O201      1.39337      .   S
    N204   O205      1.26641      .   S
    N203   O205      1.64002      .   S
    N204   O206      1.25909      .   S
    N202   O206      1.63361      .   S
    N202   O207      1.78824      .   S
    Zr8    O207      1.79470  1_565   S
    N202   O208      2.41228      .   S
    Zr14   O208      1.41038  1_655   S
    N203   O209      1.84572      .   S
    Zr1    O209      1.79671      .   S
    N203   O210      2.48178      .   S
    Zr13   O210      1.34554      .   S
    N204   O211      4.83309      .   S
    Zr12   O211      1.39398      .   S
    N214   O215      1.26782      .   S
    N213   O215      1.64324      .   S
    N214   O216      1.25625      .   S
    N212   O216      1.62879      .   S
    N214   O217      4.76159  1_545   S
    Zr27   O217      1.44825      .   S
    N212   O218      1.81328  1_545   S
    Zr8    O218      1.67605      .   S
    N213   O219      1.67136      .   S
    Zr2    O219      1.82944      .   S
    N212   O220      2.51614      .   S
    Zr29   O220      1.31520      .   S
    N213   O221      2.39158      .   S
    Zr28   O221      1.38585      .   S
    N224   O225      1.25639  1_455   S
    N223   O225      1.62896      .   S
    N224   O226      1.26795      .   S
    N222   O226      1.64338      .   S
    N224   O227      4.76187  1_454   S
    Zr21   O227      1.44862  1_455   S
    N223   O228      2.51620      .   S
    Zr23   O228      1.31537      .   S
    N222   O229      1.67118      .   S
    Zr11   O229      1.83109      .   S
    N222   O230      2.39122      .   S
    Zr22   O230      1.38589      .   S
    N223   O231      1.81362  1_554   S
    Zr5    O231      1.67677      .   S
    N234   O235      1.25685      .   S
    N233   O235      1.62944      .   S
    N234   O236      1.26992      .   S
    N232   O236      1.64525      .   S
    N233   O237      2.51895      .   S
    Zr17   O237      1.31697      .   S
    N233   O238      1.93616  1_565   S
    Zr2    O238      1.58108      .   S
    N232   O239      1.67264      .   S
    Zr8    O239      1.82826      .   S
    N234   O240      4.76577  1_565   S
    Zr15   O240      1.43904      .   S
    N232   O241      2.39131      .   S
    Zr16   O241      1.38538      .   S
    N244   O245      1.26710      .   S
    N243   O245      1.64093      .   S
    N244   O246      1.25877      .   S
    N242   O246      1.63321      .   S
    N244   O247      4.83301      .   S
    Zr24   O247      1.39309      .   S
    N243   O248      2.47976      .   S
    Zr25   O248      1.34832      .   S
    N242   O249      2.41358      .   S
    Zr26   O249      1.41093  1_455   S
    N242   O250      1.79106      .   S
    Zr2    O250      1.79462  1_545   S
    N243   O251      1.84636      .   S
    Zr7    O251      1.79507      .   S
    N254   O255      1.27775      .   S
    N253   O255      1.65308      .   S
    N254   O256      1.24883  1_655   S
    N252   O256      1.62141      .   S
    N252   O257      1.93696  1_556   S
    Zr11   O257      1.57905      .   S
    N253   O258      1.67223      .   S
    Zr5    O258      1.82671      .   S
    N253   O259      2.39119      .   S
    Zr34   O259      1.38532      .   S
    N254   O260      4.76611  1_656   S
    Zr33   O260      1.44001  1_655   S
    N252   O261      2.51872      .   S
    Zr35   O261      1.31691      .   S
    N264   O265      1.25909      .   S
    N262   O265      1.63363      .   S
    N264   O266      1.26648      .   S
    N263   O266      1.64012      .   S
    N262   O267      2.41328      .   S
    Zr32   O267      1.41118      .   S
    N264   O268      4.83303      .   S
    Zr30   O268      1.39398      .   S
    N262   O269      1.78870      .   S
    Zr5    O269      1.79237  1_556   S
    N263   O270      1.84572      .   S
    Zr10   O270      1.79687      .   S
    N263   O271      2.49458  1_655   S
    Zr31   O271      1.34376      .   S
