# CIF file generated by openbabel 2.4.90, see http://openbabel.sf.net
data_I
_chemical_name_common ''
_cell_length_a 7.58
_cell_length_b 10.5225
_cell_length_c 13.26
_cell_angle_alpha 90.014
_cell_angle_beta 90.038
_cell_angle_gamma 90.102
_space_group_name_H-M_alt 'P 1'
_space_group_name_Hall 'P 1'
loop_
    _symmetry_equiv_pos_as_xyz
    x,y,z
loop_
    _atom_site_label
    _atom_site_type_symbol
    _atom_site_fract_x
    _atom_site_fract_y
    _atom_site_fract_z
    _atom_site_occupancy
    Ag0     Ag   0.28880   0.87918   0.80599   1.000
    Ag1     Ag   0.78719   0.62141   0.19518   1.000
    Ag2     Ag   0.71159   0.37935   0.69488   1.000
    C3      C    0.10754   0.39593   0.22323   1.000
    Ag4     Ag   0.21328   0.12172   0.30675   1.000
    C5      C    0.39236   0.60428   0.72342   1.000
    C6      C    0.89262   0.89589   0.27897   1.000
    C7      C    0.60799   0.10422   0.77741   1.000
    O8      O    0.13956   0.28976   0.18209   1.000
    O9      O    0.07469   0.49983   0.17799   1.000
    O10     O    0.36342   0.71040   0.68148   1.000
    O11     O    0.42296   0.49946   0.67904   1.000
    O12     O    0.86042   0.78967   0.32006   1.000
    O13     O    0.92552   0.99987   0.32425   1.000
    O14     O    0.63689   0.21092   0.81854   1.000
    O15     O    0.57754   0.99983   0.82254   1.000
    Ts16    Ts   0.24236   0.92942   0.77831   1.000
    Ts17    Ts   0.31571   0.82215   0.83557   1.000
    Ts18    Ts   0.81474   0.67858   0.16592   1.000
    Ts19    Ts   0.74063   0.57107   0.22286   1.000
    Ts20    Ts   0.75808   0.42966   0.72289   1.000
    Ts21    Ts   0.68469   0.32202   0.66530   1.000
    Og22    Og   0.10632   0.39756   0.26136   1.000
    Ts23    Ts   0.18566   0.17876   0.33606   1.000
    Ts24    Ts   0.25989   0.07146   0.27887   1.000
    Og25    Og   0.39333   0.60284   0.76155   1.000
    Og26    Og   0.89388   0.89755   0.24084   1.000
    Og27    Og   0.60699   0.10256   0.73931   1.000
loop_
    _geom_bond_atom_site_label_1
    _geom_bond_atom_site_label_2
    _geom_bond_distance
    _geom_bond_site_symmetry_2
    _ccdc_geom_bond_type
    O9     Ag1       2.53937  1_455   S
    O9     C3        1.27205      .   S
    O8     C3        1.26704      .   S
    O8     Ag4       2.48499      .   S
    Ag1    O12       2.48560      .   S
    C6     O12       1.26697      .   S
    C6     O13       1.27206      .   S
    Ag4    O13       2.53897  1_445   S
    O11    Ag2       2.53725      .   S
    O11    C5        1.27173      .   S
    O10    C5        1.26701      .   S
    O10    Ag0       2.49060      .   S
    Ag2    O14       2.47987      .   S
    C7     O14       1.26675      .   S
    C7     O15       1.27181  1_545   S
    Ag0    O15       2.53763      .   S
    Ag0    Ts16      0.73403      .   S
    Ag0    Ts17      0.74561      .   S
    Ag1    Ts18      0.74547      .   S
    Ag1    Ts19      0.73451      .   S
    Ag2    Ts20      0.73589      .   S
    Ag2    Ts21      0.74735      .   S
    C3     Og22      0.50609      .   S
    Ag4    Ts23      0.74539      .   S
    Ag4    Ts24      0.73613      .   S
    C5     Og25      0.50590      .   S
    C6     Og26      0.50609      .   S
    C7     Og27      0.50558      .   S
