# CIF file generated by openbabel 2.4.90, see http://openbabel.sf.net
data_I
_chemical_name_common ''
_cell_length_a 7.58
_cell_length_b 10.5225
_cell_length_c 13.26
_cell_angle_alpha 90.014
_cell_angle_beta 90.038
_cell_angle_gamma 90.102
_space_group_name_H-M_alt 'P 1'
_space_group_name_Hall 'P 1'
loop_
    _symmetry_equiv_pos_as_xyz
    x,y,z
loop_
    _atom_site_label
    _atom_site_type_symbol
    _atom_site_fract_x
    _atom_site_fract_y
    _atom_site_fract_z
    _atom_site_occupancy
    Zr0     Zr   0.21328   0.12172   0.30675   1.000
    Zr1     Zr   0.28880   0.87918   0.80599   1.000
    Zr2     Zr   0.78719   0.62141   0.19518   1.000
    Zr3     Zr   0.71159   0.37935   0.69488   1.000
    N4      N    0.38415   0.76277   0.06245   1.000
    O5      O    0.35666   0.77820   0.95640   1.000
    O6      O    0.33367   0.90455   0.16369   1.000
    N7      N    0.61623   0.26202   0.43867   1.000
    O8      O    0.64374   0.27769   0.54460   1.000
    O9      O    0.66679   0.40396   0.33769   1.000
    N10     N    0.11635   0.23805   0.56226   1.000
    O11     O    0.16774   0.09630   0.66337   1.000
    O12     O    0.14410   0.22266   0.45649   1.000
    N13     N    0.88413   0.73833   0.93976   1.000
    O14     O    0.85632   0.72275   0.04552   1.000
    O15     O    0.83273   0.59658   0.83833   1.000
    C16     C    0.60747   0.10499   0.80617   1.000
    O17     O    0.60942   0.14343   0.69282   1.000
    O18     O    0.52032   0.02224   0.81021   1.000
    O19     O    0.64086   0.20006   0.78144   1.000
    C20     C    0.39291   0.60471   0.69465   1.000
    O21     O    0.48009   0.52206   0.69080   1.000
    O22     O    0.39095   0.64358   0.80809   1.000
    O23     O    0.35951   0.69975   0.71919   1.000
    C24     C    0.10726   0.39517   0.19443   1.000
    O25     O    0.10915   0.35669   0.30789   1.000
    O26     O    0.01910   0.47790   0.19051   1.000
    O27     O    0.14184   0.30046   0.21943   1.000
    C28     C    0.89285   0.89514   0.30776   1.000
    O29     O    0.89109   0.85675   0.19426   1.000
    O30     O    0.98113   0.97797   0.31163   1.000
    O31     O    0.85833   0.80034   0.28269   1.000
loop_
    _geom_bond_atom_site_label_1
    _geom_bond_atom_site_label_2
    _geom_bond_distance
    _geom_bond_site_symmetry_2
    _ccdc_geom_bond_type
    N4     O5        1.43074  1_554   S
    Zr1    O5        2.31802      .   S
    N4     O6        2.04354      .   S
    Zr0    O6        3.10819  1_545   S
    N7     O8        1.42924      .   S
    Zr3    O8        2.31848      .   S
    N7     O9        2.04212      .   S
    Zr2    O9        3.10424      .   S
    N10    O11       2.04354      .   S
    Zr1    O11       3.10570  1_565   S
    N10    O12       1.42760      .   S
    Zr0    O12       2.31257      .   S
    N13    O14       1.42784  1_556   S
    Zr2    O14       2.31304      .   S
    N13    O15       2.04498      .   S
    Zr3    O15       3.11035      .   S
    C16    O17       1.55666      .   S
    N7     O17       3.59419      .   S
    C16    O18       1.09332      .   S
    Zr1    O18       2.31078  1_565   S
    C16    O19       1.08247      .   S
    Zr3    O19       2.27207      .   S
    C20    O21       1.09443      .   S
    Zr3    O21       2.31223      .   S
    C20    O22       1.55885      .   S
    N4     O22       3.59859  1_554   S
    C20    O23       1.08209      .   S
    Zr1    O23       2.27593      .   S
    C24    O25       1.55815      .   S
    N10    O25       3.59731      .   S
    C24    O26       1.09957      .   S
    Zr2    O26       2.32038  1_655   S
    C24    O27       1.08298      .   S
    Zr0    O27       2.27492      .   S
    C28    O29       1.55823      .   S
    N13    O29       3.59746  1_556   S
    C28    O30       1.09897      .   S
    Zr0    O30       2.31937  1_445   S
    C28    O31       1.08299      .   S
    Zr2    O31       2.27518      .   S
