# CIF file generated by openbabel 2.4.90, see http://openbabel.sf.net
data_I
_chemical_name_common ''
_cell_length_a 7.58
_cell_length_b 10.5225
_cell_length_c 13.26
_cell_angle_alpha 90.014
_cell_angle_beta 90.038
_cell_angle_gamma 90.102
_space_group_name_H-M_alt 'P 1'
_space_group_name_Hall 'P 1'
loop_
    _symmetry_equiv_pos_as_xyz
    x,y,z
loop_
    _atom_site_label
    _atom_site_type_symbol
    _atom_site_fract_x
    _atom_site_fract_y
    _atom_site_fract_z
    _atom_site_occupancy
    Zr0     Zr   0.21328   0.12172   0.30675   1.000
    Zr1     Zr   0.28880   0.87918   0.80599   1.000
    Zr2     Zr   0.78719   0.62141   0.19518   1.000
    Zr3     Zr   0.71159   0.37935   0.69488   1.000
    Zr4     Zr   0.10754   0.39593   0.22323   1.000
    Zr5     Zr   0.39236   0.60428   0.72342   1.000
    Zr6     Zr   0.89262   0.89589   0.27897   1.000
    Zr7     Zr   0.60799   0.10422   0.77741   1.000
    Zr8     Zr   0.13956   0.28976   0.18209   1.000
    Zr9     Zr   0.07469   0.49983   0.17799   1.000
    Zr10    Zr   0.36342   0.71040   0.68148   1.000
    Zr11    Zr   0.42296   0.49946   0.67904   1.000
    Zr12    Zr   0.86042   0.78967   0.32006   1.000
    Zr13    Zr   0.92552   0.99987   0.32425   1.000
    Zr14    Zr   0.63689   0.21092   0.81854   1.000
    Zr15    Zr   0.57754   0.99983   0.82254   1.000
    O16     O    0.93094   0.56062   0.18659   1.000
    O17     O    0.09111   0.44788   0.20061   1.000
    O18     O    0.12355   0.34285   0.20266   1.000
    O19     O    0.17642   0.20574   0.24442   1.000
    O20     O    0.82380   0.70554   0.25762   1.000
    O21     O    0.87652   0.84278   0.29952   1.000
    O22     O    0.90907   0.94788   0.30161   1.000
    O23     O    0.06940   0.06079   0.31550   1.000
    O24     O    0.56728   0.43940   0.68696   1.000
    O25     O    0.40766   0.55187   0.70123   1.000
    O26     O    0.37789   0.65734   0.70245   1.000
    O27     O    0.32611   0.79479   0.74373   1.000
    O28     O    0.67424   0.29513   0.75671   1.000
    O29     O    0.62244   0.15757   0.79798   1.000
    O30     O    0.59277   0.05202   0.79998   1.000
    O31     O    0.43317   0.93950   0.81426   1.000
    N32     N    0.38415   0.76277   0.06245   1.000
    O33     O    0.35666   0.77820   0.95640   1.000
    O34     O    0.38898   0.68245   0.92153   1.000
    O35     O    0.33367   0.90455   0.16369   1.000
    N36     N    0.61623   0.26202   0.43867   1.000
    O37     O    0.64374   0.27769   0.54460   1.000
    O38     O    0.66679   0.40396   0.33769   1.000
    O39     O    0.61136   0.18188   0.57947   1.000
    N40     N    0.11635   0.23805   0.56226   1.000
    O41     O    0.16774   0.09630   0.66337   1.000
    O42     O    0.14410   0.22266   0.45649   1.000
    O43     O    0.11103   0.31821   0.42135   1.000
    N44     N    0.88413   0.73833   0.93976   1.000
    O45     O    0.85632   0.72275   0.04552   1.000
    O46     O    0.83273   0.59658   0.83833   1.000
    O47     O    0.88932   0.81836   0.08076   1.000
loop_
    _geom_bond_atom_site_label_1
    _geom_bond_atom_site_label_2
    _geom_bond_distance
    _geom_bond_site_symmetry_2
    _ccdc_geom_bond_type
    Zr9    O16       1.26969  1_455   S
    Zr2    O16       1.26969      .   S
    Zr9    O17       0.63603      .   S
    Zr4    O17       0.63603      .   S
    Zr8    O18       0.63352      .   S
    Zr4    O18       0.63352      .   S
    Zr8    O19       1.24250      .   S
    Zr0    O19       1.24250      .   S
    Zr2    O20       1.24280      .   S
    Zr12   O20       1.24280      .   S
    Zr6    O21       0.63349      .   S
    Zr12   O21       0.63349      .   S
    Zr6    O22       0.63603      .   S
    Zr13   O22       0.63603      .   S
    Zr0    O23       1.26949      .   S
    Zr13   O23       1.26949  1_665   S
    Zr11   O24       1.26862      .   S
    Zr3    O24       1.26862      .   S
    Zr11   O25       0.63586      .   S
    Zr5    O25       0.63586      .   S
    Zr10   O26       0.63350      .   S
    Zr5    O26       0.63350      .   S
    Zr10   O27       1.24530      .   S
    Zr1    O27       1.24530      .   S
    Zr3    O28       1.23993      .   S
    Zr14   O28       1.23993      .   S
    Zr7    O29       0.63338      .   S
    Zr14   O29       0.63338      .   S
    Zr7    O30       0.63590      .   S
    Zr15   O30       0.63590  1_565   S
    Zr1    O31       1.26881      .   S
    Zr15   O31       1.26881      .   S
    N32    O33       1.43074  1_554   S
    Zr1    O33       2.31802      .   S
    N32    O34       2.05100  1_554   S
    Zr5    O34       2.75271      .   S
    N32    O35       2.04354      .   S
    Zr0    O35       3.10819  1_545   S
    N36    O37       1.42924      .   S
    Zr3    O37       2.31848      .   S
    N36    O38       2.04212      .   S
    Zr2    O38       3.10424      .   S
    N36    O39       2.04905      .   S
    Zr7    O39       2.74934      .   S
    N40    O41       2.04354      .   S
    Zr1    O41       3.10570  1_565   S
    N40    O42       1.42760      .   S
    Zr0    O42       2.31257      .   S
    N40    O43       2.05069      .   S
    Zr4    O43       2.75180      .   S
    N44    O45       1.42784  1_556   S
    Zr2    O45       2.31304      .   S
    N44    O46       2.04498      .   S
    Zr3    O46       3.11035      .   S
    N44    O47       2.05073  1_556   S
    Zr6    O47       2.75189      .   S
