# CIF file generated by openbabel 2.4.90, see http://openbabel.sf.net
data_I
_chemical_name_common ''
_cell_length_a 19.673
_cell_length_b 24.252
_cell_length_c 15.389
_cell_angle_alpha 96.079
_cell_angle_beta 98.001
_cell_angle_gamma 113.54
_space_group_name_H-M_alt 'P 1'
_space_group_name_Hall 'P 1'
loop_
    _symmetry_equiv_pos_as_xyz
    x,y,z
loop_
    _atom_site_label
    _atom_site_type_symbol
    _atom_site_fract_x
    _atom_site_fract_y
    _atom_site_fract_z
    _atom_site_occupancy
    H0      H    0.14338   0.49706   0.81346   1.000
    H1      H    0.14344   0.99695   0.81340   1.000
    H2      H    0.64340   0.49706   0.81346   1.000
    H3      H    0.64346   0.99695   0.81340   1.000
    H4      H    0.36527   0.02671   0.94671   1.000
    H5      H    0.36516   0.52658   0.94659   1.000
    H6      H    0.86528   0.02671   0.94670   1.000
    H7      H    0.86517   0.52658   0.94658   1.000
    H8      H    0.33705   0.41758   0.89060   1.000
    H9      H    0.33739   0.91777   0.89072   1.000
    H10     H    0.83706   0.41758   0.89060   1.000
    H11     H    0.83740   0.91778   0.89072   1.000
    H12     H    0.21109   0.34927   0.79376   1.000
    H13     H    0.21151   0.84936   0.79377   1.000
    H14     H    0.71110   0.34927   0.79376   1.000
    H15     H    0.71152   0.84935   0.79377   1.000
    H16     H    0.41202   0.00357   0.66829   1.000
    H17     H    0.41191   0.50370   0.66840   1.000
    H18     H    0.91203   0.00357   0.66829   1.000
    H19     H    0.91192   0.50370   0.66840   1.000
    H20     H    0.23572   0.06242   0.59929   1.000
    H21     H    0.23581   0.56274   0.59917   1.000
    H22     H    0.73573   0.06242   0.59929   1.000
    H23     H    0.73582   0.56274   0.59917   1.000
    H24     H    0.13969   0.45456   0.56852   1.000
    H25     H    0.13973   0.95421   0.56846   1.000
    H26     H    0.63970   0.45456   0.56852   1.000
    H27     H    0.63974   0.95421   0.56846   1.000
    H28     H    0.18159   0.37041   0.57600   1.000
    H29     H    0.18180   0.87013   0.57578   1.000
    H30     H    0.68160   0.37042   0.57604   1.000
    H31     H    0.68181   0.87013   0.57578   1.000
    H32     H    0.09118   0.32499   0.14082   1.000
    H33     H    0.09151   0.82501   0.14092   1.000
    H34     H    0.59119   0.32499   0.14082   1.000
    H35     H    0.59152   0.82501   0.14092   1.000
    H36     H    0.18356   0.20167   0.20458   1.000
    H37     H    0.18384   0.70166   0.20465   1.000
    H38     H    0.68357   0.20167   0.20458   1.000
    H39     H    0.68385   0.70166   0.20465   1.000
    H40     H    0.03852   0.34135   0.51507   1.000
    H41     H    0.03899   0.84142   0.51511   1.000
    H42     H    0.53852   0.34135   0.51507   1.000
    H43     H    0.53899   0.84142   0.51511   1.000
    H44     H    0.33070   0.23137   0.34352   1.000
    H45     H    0.33127   0.73087   0.34373   1.000
    H46     H    0.83071   0.23137   0.34352   1.000
    H47     H    0.83128   0.73087   0.34370   1.000
    H48     H    0.37622   0.34766   0.22199   1.000
    H49     H    0.37655   0.84771   0.22208   1.000
    H50     H    0.87623   0.34767   0.22190   1.000
    H51     H    0.87657   0.84771   0.22208   1.000
    H52     H    0.39921   0.19504   0.09536   1.000
    H53     H    0.39946   0.69507   0.09538   1.000
    H54     H    0.89922   0.19504   0.09536   1.000
    H55     H    0.89947   0.69507   0.09538   1.000
    H56     H    0.35659   0.00303   0.18655   1.000
    H57     H    0.35665   0.50291   0.18649   1.000
    H58     H    0.85661   0.00303   0.18655   1.000
    H59     H    0.85667   0.50291   0.18649   1.000
    H60     H    0.13488   0.47341   0.05330   1.000
    H61     H    0.13477   0.97327   0.05324   1.000
    H62     H    0.63489   0.47341   0.05336   1.000
    H63     H    0.63479   0.97327   0.05323   1.000
    H64     H    0.16266   0.08221   0.10923   1.000
    H65     H    0.16300   0.58240   0.10935   1.000
    H66     H    0.66267   0.08221   0.10923   1.000
    H67     H    0.66301   0.58240   0.10935   1.000
    H68     H    0.28854   0.15063   0.20618   1.000
    H69     H    0.28896   0.65072   0.20619   1.000
    H70     H    0.78855   0.15063   0.20618   1.000
    H71     H    0.78897   0.65072   0.20619   1.000
    C72     C    0.82513   0.88175   0.63048   1.000
    C73     C    0.38740   0.10499   0.64877   1.000
    C74     C    0.38752   0.60517   0.64871   1.000
    C75     C    0.88743   0.10499   0.64874   1.000
    H76     H    0.08813   0.49628   0.33150   1.000
    H77     H    0.08802   0.99641   0.33166   1.000
    H78     H    0.58814   0.49628   0.33155   1.000
    H79     H    0.58803   0.99641   0.33166   1.000
    H80     H    0.26423   0.43724   0.40070   1.000
    H81     H    0.26432   0.93756   0.40060   1.000
    H82     H    0.76425   0.43724   0.40070   1.000
    H83     H    0.76434   0.93756   0.40067   1.000
    H84     H    0.36031   0.04577   0.43150   1.000
    H85     H    0.36036   0.54542   0.43144   1.000
    H86     H    0.86032   0.04578   0.43100   1.000
    H87     H    0.86037   0.54542   0.43143   1.000
    H88     H    0.31825   0.12985   0.42417   1.000
    H89     H    0.31845   0.62957   0.42390   1.000
    H90     H    0.81826   0.12985   0.42417   1.000
    H91     H    0.81846   0.62957   0.42390   1.000
    H92     H    0.40853   0.17497   0.85904   1.000
    H93     H    0.40886   0.67499   0.85914   1.000
    H94     H    0.90855   0.17497   0.85904   1.000
    H95     H    0.90888   0.67499   0.85914   1.000
    H96     H    0.31620   0.29832   0.79531   1.000
    H97     H    0.31648   0.79831   0.79538   1.000
    H98     H    0.81621   0.29832   0.79531   1.000
    H99     H    0.81649   0.79831   0.79538   1.000
    H100    H    0.46107   0.15856   0.48485   1.000
    H101    H    0.46154   0.65863   0.48489   1.000
    H102    H    0.96107   0.15856   0.48485   1.000
    H103    H    0.96154   0.65863   0.48489   1.000
    C104    C    0.22473   0.41568   0.08605   1.000
    C105    C    0.22477   0.91568   0.08600   1.000
    C106    C    0.72474   0.41568   0.08605   1.000
    C107    C    0.72479   0.91568   0.08600   1.000
    C108    C    0.20068   0.06858   0.37737   1.000
    H109    H    0.16879   0.26909   0.65620   1.000
    H110    H    0.16936   0.76860   0.65640   1.000
    H111    H    0.66880   0.26909   0.65624   1.000
    H112    H    0.66937   0.76860   0.65644   1.000
    H113    H    0.12349   0.15227   0.77787   1.000
    H114    H    0.12382   0.65232   0.77797   1.000
    H115    H    0.62350   0.15227   0.77787   1.000
    H116    H    0.62384   0.65232   0.77797   1.000
    H117    H    0.10058   0.30491   0.90457   1.000
    H118    H    0.10084   0.80494   0.90460   1.000
    H119    H    0.60060   0.30491   0.90457   1.000
    H120    H    0.60085   0.80494   0.90460   1.000
    C121    C    0.16924   0.41857   0.79833   1.000
    C122    C    0.16950   0.91855   0.79830   1.000
    C123    C    0.66926   0.41857   0.79833   1.000
    C124    C    0.66952   0.91855   0.79831   1.000
    C125    C    0.18563   0.47960   0.83036   1.000
    C126    C    0.18576   0.97955   0.83034   1.000
    C127    C    0.68565   0.47960   0.83035   1.000
    C128    C    0.68577   0.97955   0.83034   1.000
    C129    C    0.25638   0.01842   0.88318   1.000
    C130    C    0.25631   0.51840   0.88315   1.000
    C131    C    0.75639   0.01842   0.88318   1.000
    C132    C    0.75632   0.51840   0.88314   1.000
    C133    C    0.31062   0.49572   0.90500   1.000
    C134    C    0.31077   0.99582   0.90517   1.000
    C135    C    0.81063   0.49572   0.90508   1.000
    C136    C    0.81078   0.99582   0.90517   1.000
    C137    C    0.29448   0.43488   0.87363   1.000
    C138    C    0.29476   0.93500   0.87372   1.000
    C139    C    0.79449   0.43488   0.87363   1.000
    C140    C    0.79477   0.93500   0.87372   1.000
    C141    C    0.22439   0.39668   0.82002   1.000
    C142    C    0.22472   0.89674   0.82005   1.000
    C143    C    0.72440   0.39667   0.82000   1.000
    C144    C    0.72474   0.89674   0.82005   1.000
    C145    C    0.09387   0.37691   0.74147   1.000
    C146    C    0.09418   0.87682   0.74141   1.000
    C147    C    0.59388   0.37691   0.74147   1.000
    C148    C    0.59419   0.87682   0.74142   1.000
    C149    C    0.27526   0.08430   0.91393   1.000
    C150    C    0.27530   0.58430   0.91390   1.000
    C151    C    0.77528   0.08430   0.91393   1.000
    C152    C    0.77532   0.58430   0.91390   1.000
    C153    C    0.29919   0.43161   0.62270   1.000
    C154    C    0.29936   0.93140   0.62258   1.000
    C155    C    0.79921   0.43161   0.62277   1.000
    C156    C    0.79937   0.93140   0.62259   1.000
    C157    C    0.35249   0.49291   0.64483   1.000
    C158    C    0.35259   0.99273   0.64473   1.000
    C159    C    0.85250   0.49291   0.64483   1.000
    C160    C    0.85260   0.99273   0.64473   1.000
    C161    C    0.32991   0.03983   0.63458   1.000
    C162    C    0.32991   0.54005   0.63457   1.000
    C163    C    0.82992   0.03983   0.63459   1.000
    C164    C    0.82993   0.54005   0.63458   1.000
    C165    C    0.25278   0.02542   0.60739   1.000
    C166    C    0.25280   0.52570   0.60736   1.000
    C167    C    0.75280   0.02542   0.60738   1.000
    C168    C    0.75282   0.52570   0.60730   1.000
    C169    C    0.19944   0.46508   0.58902   1.000
    C170    C    0.19950   0.96477   0.58895   1.000
    C171    C    0.69945   0.46508   0.58902   1.000
    C172    C    0.69951   0.96477   0.58895   1.000
    C173    C    0.22248   0.41793   0.59416   1.000
    C174    C    0.22263   0.91766   0.59397   1.000
    C175    C    0.72249   0.41793   0.59416   1.000
    C176    C    0.72264   0.91766   0.59397   1.000
    C177    C    0.32484   0.38192   0.63074   1.000
    C178    C    0.32511   0.88175   0.63050   1.000
    C179    C    0.82486   0.38192   0.63072   1.000
    O180    O    0.22203   0.60238   0.89270   1.000
    O181    O    0.72194   0.10230   0.89268   1.000
    O182    O    0.72204   0.60237   0.89270   1.000
    O183    O    0.34029   0.12066   0.95623   1.000
    O184    O    0.34036   0.62062   0.95600   1.000
    O185    O    0.84030   0.12066   0.95623   1.000
    O186    O    0.84037   0.62062   0.95619   1.000
    O187    O    0.27909   0.32637   0.59642   1.000
    C188    C    0.88754   0.60516   0.64870   1.000
    C189    C    0.10161   0.28953   0.16986   1.000
    C190    C    0.10193   0.78954   0.16996   1.000
    C191    C    0.60162   0.28953   0.16986   1.000
    C192    C    0.60195   0.78954   0.16996   1.000
    C193    C    0.14965   0.22763   0.20236   1.000
    C194    C    0.14994   0.72762   0.20242   1.000
    C195    C    0.64967   0.22763   0.20236   1.000
    C196    C    0.64996   0.72762   0.20243   1.000
    C197    C    0.47834   0.31596   0.48895   1.000
    C198    C    0.47882   0.81586   0.48903   1.000
    C199    C    0.97835   0.31596   0.48895   1.000
    C200    C    0.97883   0.81586   0.48903   1.000
    C201    C    0.37297   0.26047   0.40114   1.000
    C202    C    0.37350   0.76008   0.40131   1.000
    C203    C    0.87298   0.26047   0.40114   1.000
    C204    C    0.87351   0.76008   0.40131   1.000
    C205    C    0.36777   0.30740   0.17570   1.000
    C206    C    0.36809   0.80746   0.17583   1.000
    C207    C    0.86778   0.30740   0.17570   1.000
    C208    C    0.86810   0.80745   0.17583   1.000
    C209    C    0.38050   0.23061   0.11161   1.000
    C210    C    0.38078   0.73065   0.11165   1.000
    C211    C    0.88052   0.23061   0.11161   1.000
    C212    C    0.88079   0.73065   0.11165   1.000
    C213    C    0.33054   0.08143   0.20164   1.000
    C214    C    0.33080   0.58141   0.20160   1.000
    C215    C    0.83055   0.08143   0.20163   1.000
    C216    C    0.83081   0.58141   0.20162   1.000
    C217    C    0.31428   0.02043   0.16961   1.000
    C218    C    0.31441   0.52038   0.16959   1.000
    C219    C    0.81429   0.02043   0.16961   1.000
    C220    C    0.81442   0.52038   0.16959   1.000
    C221    C    0.24373   0.48158   0.11680   1.000
    C222    C    0.24366   0.98157   0.11677   1.000
    C223    C    0.74374   0.48158   0.11680   1.000
    C224    C    0.74367   0.98156   0.11677   1.000
    C225    C    0.18927   0.00416   0.09478   1.000
    C226    C    0.18942   0.50426   0.09480   1.000
    C227    C    0.68929   0.00416   0.09478   1.000
    C228    C    0.68944   0.50426   0.09480   1.000
    C229    C    0.20529   0.06498   0.12620   1.000
    C230    C    0.20557   0.56510   0.12632   1.000
    C231    C    0.70530   0.06498   0.12623   1.000
    C232    C    0.70558   0.56510   0.12632   1.000
    C233    C    0.27532   0.10324   0.17990   1.000
    C234    C    0.27565   0.60330   0.17993   1.000
    C235    C    0.77533   0.10324   0.17990   1.000
    C236    C    0.77567   0.60330   0.17993   1.000
    C237    C    0.40586   0.12316   0.25854   1.000
    C238    C    0.40618   0.62306   0.25840   1.000
    C239    C    0.90587   0.12316   0.25854   1.000
    C240    C    0.90619   0.62306   0.25848   1.000
    C241    C    0.20085   0.56837   0.37719   1.000
    C242    C    0.70069   0.06858   0.37736   1.000
    C243    C    0.70086   0.56837   0.37710   1.000
    C244    C    0.14746   0.00725   0.35520   1.000
    C245    C    0.14755   0.50707   0.35511   1.000
    C246    C    0.64747   0.00725   0.35522   1.000
    C247    C    0.64756   0.50707   0.35512   1.000
    C248    C    0.17013   0.45993   0.36530   1.000
    C249    C    0.17013   0.96015   0.36530   1.000
    C250    C    0.67014   0.45993   0.36537   1.000
    C251    C    0.67014   0.96015   0.36537   1.000
    C252    C    0.24724   0.47428   0.39200   1.000
    C253    C    0.24726   0.97457   0.39257   1.000
    C254    C    0.74725   0.47428   0.39260   1.000
    C255    C    0.74727   0.97457   0.39257   1.000
    C256    C    0.30054   0.03521   0.41100   1.000
    C257    C    0.30060   0.53490   0.41093   1.000
    C258    C    0.80056   0.03521   0.41100   1.000
    C259    C    0.80061   0.53490   0.41093   1.000
    C260    C    0.27741   0.08232   0.40597   1.000
    C261    C    0.27756   0.58205   0.40578   1.000
    C262    C    0.77743   0.08232   0.40590   1.000
    C263    C    0.77757   0.58205   0.40579   1.000
    C264    C    0.17494   0.11823   0.36945   1.000
    C265    C    0.17520   0.61806   0.36919   1.000
    C266    C    0.67495   0.11823   0.36945   1.000
    C267    C    0.67520   0.61806   0.36922   1.000
    C268    C    0.11253   0.39481   0.35123   1.000
    C269    C    0.11264   0.89499   0.35119   1.000
    C270    C    0.61253   0.39482   0.35126   1.000
    C271    C    0.61265   0.89499   0.35120   1.000
    C272    C    0.39811   0.21044   0.83000   1.000
    C273    C    0.39843   0.71045   0.83010   1.000
    C274    C    0.89812   0.21044   0.83000   1.000
    C275    C    0.89844   0.71045   0.83010   1.000
    C276    C    0.35010   0.27236   0.79753   1.000
    C277    C    0.35039   0.77235   0.79760   1.000
    C278    C    0.85011   0.27236   0.79753   1.000
    C279    C    0.85040   0.77235   0.79760   1.000
    C280    C    0.02123   0.18411   0.51093   1.000
    C281    C    0.02171   0.68401   0.51101   1.000
    C282    C    0.52124   0.18411   0.51093   1.000
    C283    C    0.52172   0.68401   0.51101   1.000
    C284    C    0.12655   0.23989   0.59865   1.000
    C285    C    0.12708   0.73950   0.59882   1.000
    C286    C    0.62656   0.23989   0.59865   1.000
    C287    C    0.62709   0.73950   0.59882   1.000
    C288    C    0.13196   0.19253   0.82413   1.000
    C289    C    0.13227   0.69258   0.82420   1.000
    C290    C    0.63197   0.19253   0.82413   1.000
    C291    C    0.63228   0.69258   0.82420   1.000
    C292    C    0.11926   0.26933   0.88831   1.000
    C293    C    0.11954   0.76938   0.88834   1.000
    C294    C    0.61927   0.26934   0.88830   1.000
    C295    C    0.61955   0.76938   0.88834   1.000
    N296    N    0.09653   0.22056   0.25101   1.000
    N297    N    0.09681   0.72055   0.25108   1.000
    N298    N    0.59654   0.22056   0.25101   1.000
    N299    N    0.59682   0.72055   0.25108   1.000
    N300    N    0.06548   0.26037   0.22962   1.000
    N301    N    0.06580   0.76038   0.22970   1.000
    N302    N    0.56549   0.26037   0.22962   1.000
    N303    N    0.56581   0.76038   0.22970   1.000
    N304    N    0.15484   0.27038   0.15051   1.000
    N305    N    0.15516   0.77038   0.15059   1.000
    N306    N    0.65485   0.27038   0.15051   1.000
    N307    N    0.65517   0.77038   0.15059   1.000
    N308    N    0.42502   0.30908   0.53720   1.000
    N309    N    0.42550   0.80882   0.53732   1.000
    N310    N    0.92504   0.30908   0.53720   1.000
    N311    N    0.92551   0.80882   0.53732   1.000
    N312    N    0.35659   0.27335   0.48009   1.000
    N313    N    0.35711   0.77290   0.48028   1.000
    N314    N    0.85660   0.27335   0.48009   1.000
    N315    N    0.85712   0.77290   0.48020   1.000
    N316    N    0.44812   0.28654   0.40355   1.000
    N317    N    0.44864   0.78636   0.40367   1.000
    N318    N    0.94813   0.28654   0.40355   1.000
    N319    N    0.94865   0.78636   0.40367   1.000
    N320    N    0.40961   0.27483   0.18525   1.000
    N321    N    0.40989   0.77485   0.18531   1.000
    N322    N    0.90962   0.27483   0.18525   1.000
    N323    N    0.90990   0.77485   0.18531   1.000
    N324    N    0.32339   0.23510   0.05950   1.000
    N325    N    0.32370   0.73518   0.05950   1.000
    N326    N    0.82340   0.23510   0.05950   1.000
    N327    N    0.82371   0.73518   0.05953   1.000
    N328    N    0.31484   0.28459   0.10109   1.000
    N329    N    0.31517   0.78468   0.10110   1.000
    N330    N    0.81485   0.28459   0.10109   1.000
    N331    N    0.81518   0.78468   0.10114   1.000
    N332    N    0.40323   0.27943   0.74888   1.000
    N333    N    0.40352   0.77942   0.74895   1.000
    N334    N    0.90324   0.27943   0.74888   1.000
    N335    N    0.90353   0.77942   0.74895   1.000
    N336    N    0.43424   0.23960   0.77025   1.000
    N337    N    0.43456   0.73961   0.77034   1.000
    N338    N    0.93425   0.23960   0.77025   1.000
    N339    N    0.93457   0.73961   0.77034   1.000
    N340    N    0.34489   0.22960   0.84937   1.000
    N341    N    0.34520   0.72960   0.84945   1.000
    N342    N    0.84490   0.22960   0.84937   1.000
    N343    N    0.84521   0.72960   0.84945   1.000
    N344    N    0.07455   0.19115   0.46264   1.000
    N345    N    0.07503   0.69089   0.46276   1.000
    N346    N    0.57456   0.19115   0.46264   1.000
    N347    N    0.57504   0.69089   0.46270   1.000
    N348    N    0.14295   0.22707   0.51969   1.000
    N349    N    0.14346   0.72662   0.51987   1.000
    N350    N    0.64296   0.22706   0.51969   1.000
    N351    N    0.64347   0.72662   0.51987   1.000
    N352    N    0.05141   0.21362   0.59629   1.000
    N353    N    0.05193   0.71344   0.59641   1.000
    N354    N    0.55142   0.21361   0.59629   1.000
    N355    N    0.55194   0.71344   0.59641   1.000
    N356    N    0.09015   0.22513   0.81464   1.000
    N357    N    0.09043   0.72515   0.81471   1.000
    N358    N    0.59016   0.22513   0.81464   1.000
    N359    N    0.59044   0.72515   0.81471   1.000
    N360    N    0.17634   0.26481   0.94042   1.000
    N361    N    0.17665   0.76489   0.94046   1.000
    N362    N    0.67636   0.26481   0.94042   1.000
    N363    N    0.67666   0.76489   0.94046   1.000
    N364    N    0.18487   0.21530   0.89881   1.000
    N365    N    0.18520   0.71539   0.89887   1.000
    N366    N    0.68488   0.21531   0.89881   1.000
    N367    N    0.68521   0.71539   0.89887   1.000
    O368    O    0.07910   0.32166   0.71460   1.000
    O369    O    0.07955   0.82159   0.71459   1.000
    O370    O    0.57911   0.32166   0.71461   1.000
    O371    O    0.57956   0.82159   0.71459   1.000
    O372    O    0.04669   0.40096   0.72266   1.000
    O373    O    0.04694   0.90080   0.72250   1.000
    O374    O    0.54670   0.40096   0.72266   1.000
    O375    O    0.54695   0.90080   0.72255   1.000
    O376    O    0.22192   0.10230   0.89268   1.000
    O377    O    0.27945   0.82619   0.59608   1.000
    O378    O    0.77909   0.32637   0.59643   1.000
    O379    O    0.77946   0.82619   0.59609   1.000
    O380    O    0.39187   0.39756   0.67400   1.000
    O381    O    0.39211   0.89743   0.67387   1.000
    O382    O    0.89187   0.39756   0.67401   1.000
    O383    O    0.89212   0.89743   0.67388   1.000
    O384    O    0.45053   0.11971   0.70396   1.000
    O385    O    0.45061   0.61979   0.70393   1.000
    O386    O    0.95054   0.11971   0.70397   1.000
    O387    O    0.95062   0.61979   0.70394   1.000
    O388    O    0.37361   0.14275   0.60745   1.000
    O389    O    0.37388   0.64297   0.60735   1.000
    O390    O    0.87361   0.14275   0.60746   1.000
    O391    O    0.87389   0.64297   0.60736   1.000
    O392    O    0.42050   0.17839   0.28537   1.000
    O393    O    0.42095   0.67832   0.28534   1.000
    O394    O    0.92052   0.17839   0.28537   1.000
    O395    O    0.92096   0.67832   0.28535   1.000
    O396    O    0.45310   0.09918   0.27739   1.000
    O397    O    0.45336   0.59902   0.27728   1.000
    O398    O    0.95311   0.09918   0.27739   1.000
    O399    O    0.95337   0.59902   0.27720   1.000
    O400    O    0.27801   0.39760   0.10725   1.000
    O401    O    0.27811   0.89768   0.10727   1.000
    O402    O    0.77802   0.39760   0.10726   1.000
    O403    O    0.77813   0.89768   0.10727   1.000
    O404    O    0.15968   0.37936   0.04370   1.000
    O405    O    0.15975   0.87932   0.04372   1.000
    O406    O    0.65969   0.37936   0.04376   1.000
    O407    O    0.65976   0.87932   0.04372   1.000
    O408    O    0.22060   0.17379   0.40386   1.000
    O409    O    0.22096   0.67361   0.40352   1.000
    O410    O    0.72061   0.17379   0.40386   1.000
    O411    O    0.72097   0.67361   0.40351   1.000
    O412    O    0.10793   0.10255   0.32608   1.000
    O413    O    0.10817   0.60242   0.32595   1.000
    O414    O    0.60794   0.10255   0.32600   1.000
    O415    O    0.60819   0.60242   0.32594   1.000
    O416    O    0.04943   0.38019   0.29603   1.000
    O417    O    0.04951   0.88027   0.29600   1.000
    O418    O    0.54945   0.38018   0.29602   1.000
    O419    O    0.54953   0.88026   0.29600   1.000
    O420    O    0.12617   0.35702   0.39262   1.000
    O421    O    0.12644   0.85723   0.39250   1.000
    O422    O    0.62619   0.35701   0.39260   1.000
    O423    O    0.62646   0.85723   0.39250   1.000
loop_
    _geom_bond_atom_site_label_1
    _geom_bond_atom_site_label_2
    _geom_bond_distance
    _geom_bond_site_symmetry_2
    _ccdc_geom_bond_type
    O404   C104      1.25858      .   S
    O407   C107      1.25821      .   S
    O405   C105      1.25821      .   S
    O406   C106      1.25834      .   S
    H63    C227      1.08895  1_565   S
    H61    C225      1.08889  1_565   S
    H60    C226      1.08895      .   S
    H62    C228      1.08860      .   S
    N324   N328      1.38101      .   S
    N324   C209      1.33522      .   S
    N325   N329      1.38097      .   S
    N325   C210      1.33551      .   S
    N326   N330      1.38100      .   S
    N326   C211      1.33524      .   S
    N327   N331      1.38105      .   S
    N327   C212      1.33527      .   S
    C105   O401      1.30368      .   S
    C105   C222      1.49391      .   S
    C107   O403      1.30366      .   S
    C107   C224      1.49393      .   S
    C104   O400      1.30357      .   S
    C104   C221      1.49379      .   S
    C106   O402      1.30358      .   S
    C106   C223      1.49378      .   S
    C227   C224      1.40229  1_545   S
    C227   C231      1.39435      .   S
    C225   C222      1.40229  1_545   S
    C225   C229      1.39425      .   S
    C228   C223      1.40243      .   S
    C228   C232      1.39457      .   S
    C226   C221      1.40243      .   S
    C226   C230      1.39457      .   S
    H54    C211      1.08412      .   S
    H52    C209      1.08413      .   S
    H53    C210      1.08413      .   S
    H55    C212      1.08413      .   S
    N328   C205      1.33459      .   S
    N330   C207      1.33458      .   S
    N329   C206      1.33572      .   S
    N331   C208      1.33530      .   S
    H66    C231      1.09016      .   S
    H64    C229      1.09006      .   S
    H67    C232      1.09019      .   S
    H65    C230      1.09017      .   S
    C209   N320      1.35415      .   S
    C211   N322      1.35415      .   S
    C212   N323      1.35409      .   S
    C210   N321      1.35409      .   S
    C222   C217      1.39897  1_565   S
    C224   C219      1.39896  1_565   S
    C223   C220      1.39902      .   S
    C221   C218      1.39902      .   S
    C229   C233      1.39344      .   S
    C231   C235      1.39325      .   S
    C232   C236      1.39326      .   S
    C230   C234      1.39326      .   S
    H32    C189      1.08552      .   S
    H34    C191      1.08552      .   S
    H33    C190      1.08555      .   S
    H35    C192      1.08558      .   S
    N304   C189      1.35914      .   S
    N304   C193      1.35463      .   S
    N306   C191      1.35914      .   S
    N306   C195      1.35463      .   S
    N305   C190      1.35916      .   S
    N305   C194      1.35461      .   S
    N307   C192      1.35914      .   S
    N307   C196      1.35473      .   S
    C220   H59       1.08733      .   S
    C220   C216      1.39901      .   S
    C218   H57       1.08733      .   S
    C218   C214      1.39897      .   S
    C219   H58       1.08733      .   S
    C219   C215      1.39901      .   S
    C217   H56       1.08733      .   S
    C217   C213      1.39904      .   S
    C191   N302      1.33010      .   S
    C189   N300      1.33008      .   S
    C190   N301      1.32997      .   S
    C192   N303      1.32997      .   S
    C207   N322      1.35415      .   S
    C207   H50       1.08489      .   S
    C205   N320      1.35413      .   S
    C205   H48       1.08562      .   S
    C208   N323      1.35410      .   S
    C208   H51       1.08509      .   S
    C206   N321      1.35412      .   S
    C206   H49       1.08508      .   S
    C233   C213      1.40254      .   S
    C233   H68       1.08886      .   S
    C235   C215      1.40252      .   S
    C235   H70       1.08886      .   S
    C234   C214      1.40255      .   S
    C234   H69       1.08886      .   S
    C236   C216      1.40260      .   S
    C236   H71       1.08887      .   S
    C214   C238      1.49635      .   S
    C216   C240      1.49670      .   S
    C215   C239      1.49669      .   S
    C213   C237      1.49666      .   S
    C195   H38       1.08444      .   S
    C195   N298      1.33574      .   S
    C193   H36       1.08442      .   S
    C193   N296      1.33572      .   S
    C194   H37       1.08443      .   S
    C194   N297      1.33585      .   S
    C196   H39       1.08441      .   S
    C196   N299      1.33579      .   S
    N300   N296      1.37689      .   S
    N302   N298      1.37690      .   S
    N301   N297      1.37700      .   S
    N303   N299      1.37702      .   S
    C238   O397      1.29586      .   S
    C238   O393      1.26084      .   S
    C240   O399      1.29539      .   S
    C240   O395      1.26062      .   S
    C237   O396      1.29556      .   S
    C237   O392      1.26065      .   S
    C239   O398      1.29556      .   S
    C239   O394      1.26064      .   S
    O419   C271      1.29579      .   S
    O417   C269      1.29582      .   S
    O418   C270      1.29577      .   S
    O416   C268      1.29581      .   S
    O415   C267      1.27604      .   S
    O413   C265      1.27602      .   S
    O414   C266      1.27658      .   S
    O412   C264      1.27619      .   S
    H76    C245      1.08825      .   S
    H78    C247      1.08813      .   S
    H79    C246      1.08811  1_565   S
    H77    C244      1.08808  1_565   S
    H46    C203      1.08136      .   S
    H44    C201      1.08137      .   S
    H47    C204      1.08162      .   S
    H45    C202      1.08133      .   S
    C269   C249      1.50164      .   S
    C269   O421      1.26100      .   S
    C271   C251      1.50156      .   S
    C271   O423      1.26103      .   S
    C268   C248      1.50162      .   S
    C268   O420      1.26108      .   S
    C270   C250      1.50153      .   S
    C270   O422      1.26107      .   S
    C245   C248      1.39748      .   S
    C245   C241      1.40488      .   S
    C247   C250      1.39765      .   S
    C247   C243      1.40485      .   S
    C244   C249      1.39755  1_545   S
    C244   C108      1.40499      .   S
    C246   C251      1.39769  1_545   S
    C246   C242      1.40498      .   S
    C248   C252      1.40199      .   S
    C249   C253      1.40307      .   S
    C250   C254      1.40296      .   S
    C251   C255      1.40295      .   S
    C265   C241      1.49056      .   S
    C265   O409      1.28557      .   S
    C267   C243      1.49043      .   S
    C267   O411      1.28555      .   S
    C264   C108      1.49075      .   S
    C264   O408      1.28543      .   S
    C266   C242      1.49076      .   S
    C266   O410      1.28547      .   S
    C243   C263      1.40222      .   S
    C241   C261      1.40204      .   S
    C242   C262      1.40194      .   S
    C108   C260      1.40207      .   S
    C252   H80       1.09056      .   S
    C252   C257      1.39277      .   S
    C255   H83       1.08927      .   S
    C255   C258      1.39279  1_565   S
    C253   H81       1.08911      .   S
    C253   C256      1.39279  1_565   S
    C254   H82       1.08906      .   S
    C254   C259      1.39288      .   S
    C203   N318      1.34912      .   S
    C203   N314      1.33665      .   S
    C201   N316      1.34913      .   S
    C201   N312      1.33665      .   S
    C204   N319      1.34911      .   S
    C204   N315      1.33561      .   S
    C202   N317      1.34911      .   S
    C202   N313      1.33673      .   S
    N316   C197      1.35456      .   S
    N318   C199      1.35457      .   S
    N317   C198      1.35445      .   S
    N319   C200      1.35445      .   S
    C261   C257      1.39359      .   S
    C261   H89       1.08717      .   S
    C263   C259      1.39361      .   S
    C263   H91       1.08717      .   S
    C262   C258      1.39375      .   S
    C262   H90       1.08724      .   S
    C260   C256      1.39367      .   S
    C260   H88       1.08718      .   S
    C257   H85       1.08937      .   S
    C259   H87       1.08935      .   S
    C258   H86       1.08850      .   S
    C256   H84       1.08936      .   S
    N344   C280      1.33518      .   S
    N344   N348      1.38305      .   S
    N346   C282      1.33518      .   S
    N346   N350      1.38305      .   S
    N347   C283      1.33570      .   S
    N347   N351      1.38366      .   S
    N345   C281      1.33509      .   S
    N345   N349      1.38324      .   S
    N314   N310      1.38325      .   S
    N312   N308      1.38324      .   S
    N315   N311      1.38350      .   S
    N313   N309      1.38298      .   S
    H100   C282      1.08414      .   S
    H102   C280      1.08396  1_655   S
    H103   C281      1.08396  1_655   S
    H101   C283      1.08415      .   S
    C199   H40       1.08396  1_655   S
    C199   N310      1.33509      .   S
    C197   H42       1.08414      .   S
    C197   N308      1.33507      .   S
    C198   H43       1.08414      .   S
    C198   N309      1.33518      .   S
    C200   H41       1.08395  1_655   S
    C200   N311      1.33520      .   S
    C280   N352      1.35445      .   S
    C282   N354      1.35444      .   S
    C281   N353      1.35455      .   S
    C283   N355      1.35455      .   S
    N348   C284      1.33661      .   S
    N350   C286      1.33661      .   S
    N349   C285      1.33665      .   S
    N351   C287      1.33665      .   S
    H25    C170      1.08934      .   S
    H27    C172      1.08934      .   S
    H24    C169      1.08936      .   S
    H26    C171      1.08936      .   S
    H31    C176      1.08717      .   S
    H29    C174      1.08717      .   S
    H28    C173      1.08719      .   S
    H30    C175      1.08716      .   S
    C172   C176      1.39366      .   S
    C172   C167      1.39279  1_565   S
    C170   C174      1.39366      .   S
    C170   C165      1.39278  1_565   S
    C169   C173      1.39363      .   S
    C169   C166      1.39287      .   S
    C171   C175      1.39362      .   S
    C171   C168      1.39289      .   S
    C176   C156      1.40210      .   S
    C174   C154      1.40211      .   S
    C175   C155      1.40206      .   S
    C173   C153      1.40192      .   S
    O377   C178      1.28542      .   S
    O379   C72       1.28544      .   S
    N352   C284      1.34912      .   S
    N354   C286      1.34912      .   S
    N355   C287      1.34913      .   S
    N353   C285      1.34913      .   S
    O187   C177      1.28554      .   S
    O378   C179      1.28552      .   S
    C286   H111      1.08143      .   S
    C284   H109      1.08102      .   S
    C287   H112      1.08137      .   S
    C285   H110      1.08096      .   S
    H21    C166      1.08928      .   S
    H23    C168      1.08914      .   S
    H22    C167      1.08927      .   S
    H20    C165      1.08930      .   S
    C168   C164      1.40305      .   S
    O389   C74       1.26100      .   S
    C166   C162      1.40293      .   S
    O391   C188      1.26108      .   S
    C167   C163      1.40296      .   S
    C165   C161      1.40294      .   S
    O388   C73       1.26108      .   S
    O390   C75       1.26104      .   S
    C154   C178      1.49078      .   S
    C154   C158      1.40499      .   S
    C156   C72       1.49078      .   S
    C156   C160      1.40498      .   S
    C153   C177      1.49067      .   S
    C153   C157      1.40490      .   S
    C155   C179      1.49054      .   S
    C155   C159      1.40489      .   S
    C72    O383      1.27619      .   S
    C178   O381      1.27619      .   S
    C179   O382      1.27607      .   S
    C177   O380      1.27605      .   S
    C162   C157      1.39768      .   S
    C162   C74       1.50155      .   S
    C161   C158      1.39769  1_545   S
    C161   C73       1.50157      .   S
    C164   C159      1.39767      .   S
    C164   C188      1.50154      .   S
    C163   C160      1.39767  1_545   S
    C163   C75       1.50158      .   S
    C160   H18       1.08813  1_565   S
    C158   H16       1.08813  1_565   S
    C157   H17       1.08815      .   S
    C159   H19       1.08813      .   S
    C188   O387      1.29576      .   S
    C74    O385      1.29579      .   S
    C75    O386      1.29585      .   S
    C73    O384      1.29580      .   S
    O371   C148      1.26064      .   S
    O369   C146      1.26064      .   S
    O368   C145      1.26063      .   S
    O370   C147      1.26060      .   S
    O373   C146      1.29569      .   S
    O375   C148      1.29557      .   S
    O374   C147      1.29561      .   S
    O372   C145      1.29564      .   S
    C146   C122      1.49658      .   S
    C148   C124      1.49664      .   S
    C145   C121      1.49670      .   S
    C147   C123      1.49674      .   S
    N334   N338      1.37695      .   S
    N334   C278      1.33576      .   S
    N332   N336      1.37696      .   S
    N332   C276      1.33578      .   S
    N335   N339      1.37692      .   S
    N335   C279      1.33571      .   S
    N333   N337      1.37691      .   S
    N333   C277      1.33576      .   S
    N336   C272      1.33008      .   S
    N338   C274      1.33006      .   S
    N339   C275      1.33009      .   S
    N337   C273      1.33014      .   S
    H113   C288      1.08516      .   S
    H115   C290      1.08515      .   S
    H114   C289      1.08511      .   S
    H116   C291      1.08512      .   S
    H14    C143      1.08879      .   S
    H12    C141      1.08886      .   S
    H15    C144      1.08889      .   S
    H13    C142      1.08887      .   S
    H98    C278      1.08441      .   S
    H96    C276      1.08443      .   S
    H99    C279      1.08443      .   S
    H97    C277      1.08442      .   S
    C278   N342      1.35470      .   S
    C276   N340      1.35470      .   S
    C279   N343      1.35463      .   S
    C277   N341      1.35465      .   S
    C122   C142      1.40255      .   S
    C122   C126      1.39907      .   S
    C124   C144      1.40251      .   S
    C124   C128      1.39906      .   S
    C121   C141      1.40260      .   S
    C121   C125      1.39901      .   S
    C123   C143      1.40253      .   S
    C123   C127      1.39901      .   S
    H3     C128      1.08733      .   S
    H1     C126      1.08735      .   S
    H2     C127      1.08730      .   S
    H0     C125      1.08734      .   S
    N356   C288      1.35411      .   S
    N356   C292      1.35420      .   S
    N358   C290      1.35415      .   S
    N358   C294      1.35409      .   S
    N357   C289      1.35405      .   S
    N357   C293      1.35406      .   S
    N359   C291      1.35405      .   S
    N359   C295      1.35406      .   S
    C143   C139      1.39338      .   S
    C141   C137      1.39326      .   S
    C144   C140      1.39326      .   S
    C142   C138      1.39325      .   S
    C288   N364      1.33518      .   S
    C290   N366      1.33518      .   S
    C289   N365      1.33523      .   S
    C291   N367      1.33524      .   S
    C272   N340      1.35918      .   S
    C272   H92       1.08554      .   S
    C274   N342      1.35916      .   S
    C274   H94       1.08556      .   S
    C273   N341      1.35914      .   S
    C273   H93       1.08552      .   S
    C275   N343      1.35914      .   S
    C275   H95       1.08553      .   S
    C126   C129      1.39896  1_565   S
    C128   C131      1.39895  1_565   S
    C127   C132      1.39901      .   S
    C125   C130      1.39903      .   S
    C139   H10       1.09017      .   S
    C139   C135      1.39434      .   S
    C137   H8        1.09017      .   S
    C137   C133      1.39412      .   S
    C138   H9        1.09016      .   S
    C138   C134      1.39436      .   S
    C140   H11       1.09014      .   S
    C140   C136      1.39436      .   S
    C132   C135      1.40228      .   S
    C132   C152      1.49379      .   S
    C130   C133      1.40200      .   S
    C130   C150      1.49377      .   S
    C129   C134      1.40229  1_545   S
    C129   C149      1.49386      .   S
    C131   C136      1.40229  1_545   S
    C131   C151      1.49384      .   S
    C294   H119      1.08413      .   S
    C294   N362      1.33528      .   S
    C292   H117      1.08411      .   S
    C292   N360      1.33519      .   S
    C295   H120      1.08413      .   S
    C295   N363      1.33530      .   S
    C293   H118      1.08415      .   S
    C293   N361      1.33530      .   S
    O181   C151      1.30361      .   S
    O376   C149      1.30361      .   S
    O182   C152      1.30355      .   S
    O180   C150      1.30353      .   S
    N366   N362      1.38103      .   S
    N364   N360      1.38105      .   S
    N367   N363      1.38100      .   S
    N365   N361      1.38100      .   S
    C133   H5        1.08948      .   S
    C135   H7        1.08896      .   S
    C136   H6        1.08884  1_565   S
    C134   H4        1.08889  1_565   S
    C152   O186      1.25834      .   S
    C150   O184      1.25748      .   S
    C151   O185      1.25833      .   S
    C149   O183      1.25830      .   S
