# CIF file generated by openbabel 2.4.90, see http://openbabel.sf.net
data_I
_chemical_name_common ''
_cell_length_a 19.673
_cell_length_b 24.252
_cell_length_c 15.389
_cell_angle_alpha 96.079
_cell_angle_beta 98.001
_cell_angle_gamma 113.54
_space_group_name_H-M_alt 'P 1'
_space_group_name_Hall 'P 1'
loop_
    _symmetry_equiv_pos_as_xyz
    x,y,z
loop_
    _atom_site_label
    _atom_site_type_symbol
    _atom_site_fract_x
    _atom_site_fract_y
    _atom_site_fract_z
    _atom_site_occupancy
    Zn0     Zn   0.49606   0.78800   0.29252   1.000
    Zn1     Zn   0.99573   0.28795   0.29251   1.000
    Zn2     Zn   0.99606   0.78800   0.29252   1.000
    Zn3     Zn   0.44299   0.34186   0.66994   1.000
    Zn4     Zn   0.44323   0.84175   0.66992   1.000
    Zn5     Zn   0.94300   0.34186   0.66994   1.000
    Zn6     Zn   0.94324   0.84175   0.66992   1.000
    Zn7     Zn   0.22693   0.30838   0.06664   1.000
    Zn8     Zn   0.22722   0.80845   0.06669   1.000
    Zn9     Zn   0.72694   0.30838   0.06664   1.000
    Zn10    Zn   0.72723   0.80845   0.06669   1.000
    Zn11    Zn   0.00399   0.21198   0.70744   1.000
    Zn12    Zn   0.00433   0.71203   0.70740   1.000
    Zn13    Zn   0.50400   0.21198   0.70744   1.000
    Zn14    Zn   0.50433   0.71203   0.70745   1.000
    Zn15    Zn   0.05681   0.15823   0.33004   1.000
    Zn16    Zn   0.05705   0.65812   0.33001   1.000
    Zn17    Zn   0.55682   0.15823   0.33004   1.000
    Zn18    Zn   0.55706   0.65812   0.33001   1.000
    Zn19    Zn   0.27282   0.19153   0.93327   1.000
    Zn20    Zn   0.27311   0.69160   0.93332   1.000
    Zn21    Zn   0.77284   0.19153   0.93327   1.000
    Zn22    Zn   0.77312   0.69160   0.93332   1.000
    Zn23    Zn   0.24976   0.25022   0.49995   1.000
    Zn24    Zn   0.25030   0.74975   0.50001   1.000
    Zn25    Zn   0.74977   0.25021   0.49995   1.000
    Zn26    Zn   0.75031   0.74975   0.50001   1.000
    H27     H    0.14338   0.49706   0.81346   1.000
    H28     H    0.14344   0.99695   0.81340   1.000
    H29     H    0.64340   0.49706   0.81346   1.000
    H30     H    0.64346   0.99695   0.81340   1.000
    H31     H    0.36527   0.02671   0.94671   1.000
    Zn32    Zn   0.49572   0.28795   0.29251   1.000
    H33     H    0.36516   0.52658   0.94659   1.000
    H34     H    0.86528   0.02671   0.94670   1.000
    H35     H    0.86517   0.52658   0.94658   1.000
    H36     H    0.33705   0.41758   0.89060   1.000
    H37     H    0.33739   0.91777   0.89072   1.000
    H38     H    0.83706   0.41758   0.89060   1.000
    H39     H    0.83740   0.91778   0.89072   1.000
    H40     H    0.21109   0.34927   0.79376   1.000
    H41     H    0.21151   0.84936   0.79377   1.000
    H42     H    0.71110   0.34927   0.79376   1.000
    H43     H    0.71152   0.84935   0.79377   1.000
    H44     H    0.41202   0.00357   0.66829   1.000
    H45     H    0.41191   0.50370   0.66840   1.000
    H46     H    0.91203   0.00357   0.66829   1.000
    H47     H    0.91192   0.50370   0.66840   1.000
    H48     H    0.23572   0.06242   0.59929   1.000
    H49     H    0.23581   0.56274   0.59917   1.000
    H50     H    0.73573   0.06242   0.59929   1.000
    H51     H    0.73582   0.56274   0.59917   1.000
    H52     H    0.13969   0.45456   0.56852   1.000
    H53     H    0.13973   0.95421   0.56846   1.000
    H54     H    0.63970   0.45456   0.56852   1.000
    H55     H    0.63974   0.95421   0.56846   1.000
    H56     H    0.18159   0.37041   0.57600   1.000
    H57     H    0.18180   0.87013   0.57578   1.000
    H58     H    0.68160   0.37042   0.57604   1.000
    H59     H    0.68181   0.87013   0.57578   1.000
    H60     H    0.09118   0.32499   0.14082   1.000
    H61     H    0.09151   0.82501   0.14092   1.000
    H62     H    0.59119   0.32499   0.14082   1.000
    H63     H    0.59152   0.82501   0.14092   1.000
    H64     H    0.18356   0.20167   0.20458   1.000
    H65     H    0.18384   0.70166   0.20465   1.000
    H66     H    0.68357   0.20167   0.20458   1.000
    H67     H    0.68385   0.70166   0.20465   1.000
    H68     H    0.03852   0.34135   0.51507   1.000
    H69     H    0.03899   0.84142   0.51511   1.000
    H70     H    0.53852   0.34135   0.51507   1.000
    H71     H    0.53899   0.84142   0.51511   1.000
    H72     H    0.33070   0.23137   0.34352   1.000
    H73     H    0.33127   0.73087   0.34373   1.000
    H74     H    0.83071   0.23137   0.34352   1.000
    H75     H    0.83128   0.73087   0.34370   1.000
    H76     H    0.37622   0.34766   0.22199   1.000
    H77     H    0.37655   0.84771   0.22208   1.000
    H78     H    0.87623   0.34767   0.22190   1.000
    H79     H    0.87657   0.84771   0.22208   1.000
    H80     H    0.39921   0.19504   0.09536   1.000
    H81     H    0.39946   0.69507   0.09538   1.000
    H82     H    0.89922   0.19504   0.09536   1.000
    H83     H    0.89947   0.69507   0.09538   1.000
    H84     H    0.35659   0.00303   0.18655   1.000
    H85     H    0.35665   0.50291   0.18649   1.000
    H86     H    0.85661   0.00303   0.18655   1.000
    H87     H    0.85667   0.50291   0.18649   1.000
    H88     H    0.13488   0.47341   0.05330   1.000
    H89     H    0.13477   0.97327   0.05324   1.000
    H90     H    0.63489   0.47341   0.05336   1.000
    H91     H    0.63479   0.97327   0.05323   1.000
    H92     H    0.16266   0.08221   0.10923   1.000
    H93     H    0.16300   0.58240   0.10935   1.000
    H94     H    0.66267   0.08221   0.10923   1.000
    H95     H    0.66301   0.58240   0.10935   1.000
    H96     H    0.28854   0.15063   0.20618   1.000
    H97     H    0.28896   0.65072   0.20619   1.000
    H98     H    0.78855   0.15063   0.20618   1.000
    H99     H    0.78897   0.65072   0.20619   1.000
    C100    C    0.82513   0.88175   0.63048   1.000
    C101    C    0.38740   0.10499   0.64877   1.000
    C102    C    0.38752   0.60517   0.64871   1.000
    C103    C    0.88743   0.10499   0.64874   1.000
    H104    H    0.08813   0.49628   0.33150   1.000
    H105    H    0.08802   0.99641   0.33166   1.000
    H106    H    0.58814   0.49628   0.33155   1.000
    H107    H    0.58803   0.99641   0.33166   1.000
    H108    H    0.26423   0.43724   0.40070   1.000
    H109    H    0.26432   0.93756   0.40060   1.000
    H110    H    0.76425   0.43724   0.40070   1.000
    H111    H    0.76434   0.93756   0.40067   1.000
    H112    H    0.36031   0.04577   0.43150   1.000
    H113    H    0.36036   0.54542   0.43144   1.000
    H114    H    0.86032   0.04578   0.43100   1.000
    H115    H    0.86037   0.54542   0.43143   1.000
    H116    H    0.31825   0.12985   0.42417   1.000
    H117    H    0.31845   0.62957   0.42390   1.000
    H118    H    0.81826   0.12985   0.42417   1.000
    H119    H    0.81846   0.62957   0.42390   1.000
    H120    H    0.40853   0.17497   0.85904   1.000
    H121    H    0.40886   0.67499   0.85914   1.000
    H122    H    0.90855   0.17497   0.85904   1.000
    H123    H    0.90888   0.67499   0.85914   1.000
    H124    H    0.31620   0.29832   0.79531   1.000
    H125    H    0.31648   0.79831   0.79538   1.000
    H126    H    0.81621   0.29832   0.79531   1.000
    H127    H    0.81649   0.79831   0.79538   1.000
    H128    H    0.46107   0.15856   0.48485   1.000
    H129    H    0.46154   0.65863   0.48489   1.000
    H130    H    0.96107   0.15856   0.48485   1.000
    H131    H    0.96154   0.65863   0.48489   1.000
    C132    C    0.22473   0.41568   0.08605   1.000
    C133    C    0.22477   0.91568   0.08600   1.000
    C134    C    0.72474   0.41568   0.08605   1.000
    C135    C    0.72479   0.91568   0.08600   1.000
    C136    C    0.20068   0.06858   0.37737   1.000
    H137    H    0.16879   0.26909   0.65620   1.000
    H138    H    0.16936   0.76860   0.65640   1.000
    H139    H    0.66880   0.26909   0.65624   1.000
    H140    H    0.66937   0.76860   0.65644   1.000
    H141    H    0.12349   0.15227   0.77787   1.000
    H142    H    0.12382   0.65232   0.77797   1.000
    H143    H    0.62350   0.15227   0.77787   1.000
    H144    H    0.62384   0.65232   0.77797   1.000
    H145    H    0.10058   0.30491   0.90457   1.000
    H146    H    0.10084   0.80494   0.90460   1.000
    H147    H    0.60060   0.30491   0.90457   1.000
    H148    H    0.60085   0.80494   0.90460   1.000
    C149    C    0.16924   0.41857   0.79833   1.000
    C150    C    0.16950   0.91855   0.79830   1.000
    C151    C    0.66926   0.41857   0.79833   1.000
    C152    C    0.66952   0.91855   0.79831   1.000
    C153    C    0.18563   0.47960   0.83036   1.000
    C154    C    0.18576   0.97955   0.83034   1.000
    C155    C    0.68565   0.47960   0.83035   1.000
    C156    C    0.68577   0.97955   0.83034   1.000
    C157    C    0.25638   0.01842   0.88318   1.000
    C158    C    0.25631   0.51840   0.88315   1.000
    C159    C    0.75639   0.01842   0.88318   1.000
    C160    C    0.75632   0.51840   0.88314   1.000
    C161    C    0.31062   0.49572   0.90500   1.000
    C162    C    0.31077   0.99582   0.90517   1.000
    C163    C    0.81063   0.49572   0.90508   1.000
    C164    C    0.81078   0.99582   0.90517   1.000
    C165    C    0.29448   0.43488   0.87363   1.000
    C166    C    0.29476   0.93500   0.87372   1.000
    C167    C    0.79449   0.43488   0.87363   1.000
    C168    C    0.79477   0.93500   0.87372   1.000
    C169    C    0.22439   0.39668   0.82002   1.000
    C170    C    0.22472   0.89674   0.82005   1.000
    C171    C    0.72440   0.39667   0.82000   1.000
    C172    C    0.72474   0.89674   0.82005   1.000
    C173    C    0.09387   0.37691   0.74147   1.000
    C174    C    0.09418   0.87682   0.74141   1.000
    C175    C    0.59388   0.37691   0.74147   1.000
    C176    C    0.59419   0.87682   0.74142   1.000
    C177    C    0.27526   0.08430   0.91393   1.000
    C178    C    0.27530   0.58430   0.91390   1.000
    C179    C    0.77528   0.08430   0.91393   1.000
    C180    C    0.77532   0.58430   0.91390   1.000
    C181    C    0.29919   0.43161   0.62270   1.000
    C182    C    0.29936   0.93140   0.62258   1.000
    C183    C    0.79921   0.43161   0.62277   1.000
    C184    C    0.79937   0.93140   0.62259   1.000
    C185    C    0.35249   0.49291   0.64483   1.000
    C186    C    0.35259   0.99273   0.64473   1.000
    C187    C    0.85250   0.49291   0.64483   1.000
    C188    C    0.85260   0.99273   0.64473   1.000
    C189    C    0.32991   0.03983   0.63458   1.000
    C190    C    0.32991   0.54005   0.63457   1.000
    C191    C    0.82992   0.03983   0.63459   1.000
    C192    C    0.82993   0.54005   0.63458   1.000
    C193    C    0.25278   0.02542   0.60739   1.000
    C194    C    0.25280   0.52570   0.60736   1.000
    C195    C    0.75280   0.02542   0.60738   1.000
    C196    C    0.75282   0.52570   0.60730   1.000
    C197    C    0.19944   0.46508   0.58902   1.000
    C198    C    0.19950   0.96477   0.58895   1.000
    C199    C    0.69945   0.46508   0.58902   1.000
    C200    C    0.69951   0.96477   0.58895   1.000
    C201    C    0.22248   0.41793   0.59416   1.000
    C202    C    0.22263   0.91766   0.59397   1.000
    C203    C    0.72249   0.41793   0.59416   1.000
    C204    C    0.72264   0.91766   0.59397   1.000
    C205    C    0.32484   0.38192   0.63074   1.000
    C206    C    0.32511   0.88175   0.63050   1.000
    C207    C    0.82486   0.38192   0.63072   1.000
    O208    O    0.22203   0.60238   0.89270   1.000
    O209    O    0.72194   0.10230   0.89268   1.000
    O210    O    0.72204   0.60237   0.89270   1.000
    O211    O    0.34029   0.12066   0.95623   1.000
    O212    O    0.34036   0.62062   0.95600   1.000
    O213    O    0.84030   0.12066   0.95623   1.000
    O214    O    0.84037   0.62062   0.95619   1.000
    O215    O    0.27909   0.32637   0.59642   1.000
    C216    C    0.88754   0.60516   0.64870   1.000
    C217    C    0.10161   0.28953   0.16986   1.000
    C218    C    0.10193   0.78954   0.16996   1.000
    C219    C    0.60162   0.28953   0.16986   1.000
    C220    C    0.60195   0.78954   0.16996   1.000
    C221    C    0.14965   0.22763   0.20236   1.000
    C222    C    0.14994   0.72762   0.20242   1.000
    C223    C    0.64967   0.22763   0.20236   1.000
    C224    C    0.64996   0.72762   0.20243   1.000
    C225    C    0.47834   0.31596   0.48895   1.000
    C226    C    0.47882   0.81586   0.48903   1.000
    C227    C    0.97835   0.31596   0.48895   1.000
    C228    C    0.97883   0.81586   0.48903   1.000
    C229    C    0.37297   0.26047   0.40114   1.000
    C230    C    0.37350   0.76008   0.40131   1.000
    C231    C    0.87298   0.26047   0.40114   1.000
    C232    C    0.87351   0.76008   0.40131   1.000
    C233    C    0.36777   0.30740   0.17570   1.000
    C234    C    0.36809   0.80746   0.17583   1.000
    C235    C    0.86778   0.30740   0.17570   1.000
    C236    C    0.86810   0.80745   0.17583   1.000
    C237    C    0.38050   0.23061   0.11161   1.000
    C238    C    0.38078   0.73065   0.11165   1.000
    C239    C    0.88052   0.23061   0.11161   1.000
    C240    C    0.88079   0.73065   0.11165   1.000
    C241    C    0.33054   0.08143   0.20164   1.000
    C242    C    0.33080   0.58141   0.20160   1.000
    C243    C    0.83055   0.08143   0.20163   1.000
    C244    C    0.83081   0.58141   0.20162   1.000
    C245    C    0.31428   0.02043   0.16961   1.000
    C246    C    0.31441   0.52038   0.16959   1.000
    C247    C    0.81429   0.02043   0.16961   1.000
    C248    C    0.81442   0.52038   0.16959   1.000
    C249    C    0.24373   0.48158   0.11680   1.000
    C250    C    0.24366   0.98157   0.11677   1.000
    C251    C    0.74374   0.48158   0.11680   1.000
    C252    C    0.74367   0.98156   0.11677   1.000
    C253    C    0.18927   0.00416   0.09478   1.000
    C254    C    0.18942   0.50426   0.09480   1.000
    C255    C    0.68929   0.00416   0.09478   1.000
    C256    C    0.68944   0.50426   0.09480   1.000
    C257    C    0.20529   0.06498   0.12620   1.000
    C258    C    0.20557   0.56510   0.12632   1.000
    C259    C    0.70530   0.06498   0.12623   1.000
    C260    C    0.70558   0.56510   0.12632   1.000
    C261    C    0.27532   0.10324   0.17990   1.000
    C262    C    0.27565   0.60330   0.17993   1.000
    C263    C    0.77533   0.10324   0.17990   1.000
    C264    C    0.77567   0.60330   0.17993   1.000
    C265    C    0.40586   0.12316   0.25854   1.000
    C266    C    0.40618   0.62306   0.25840   1.000
    C267    C    0.90587   0.12316   0.25854   1.000
    C268    C    0.90619   0.62306   0.25848   1.000
    C269    C    0.20085   0.56837   0.37719   1.000
    C270    C    0.70069   0.06858   0.37736   1.000
    C271    C    0.70086   0.56837   0.37710   1.000
    C272    C    0.14746   0.00725   0.35520   1.000
    C273    C    0.14755   0.50707   0.35511   1.000
    C274    C    0.64747   0.00725   0.35522   1.000
    C275    C    0.64756   0.50707   0.35512   1.000
    C276    C    0.17013   0.45993   0.36530   1.000
    C277    C    0.17013   0.96015   0.36530   1.000
    C278    C    0.67014   0.45993   0.36537   1.000
    C279    C    0.67014   0.96015   0.36537   1.000
    C280    C    0.24724   0.47428   0.39200   1.000
    C281    C    0.24726   0.97457   0.39257   1.000
    C282    C    0.74725   0.47428   0.39260   1.000
    C283    C    0.74727   0.97457   0.39257   1.000
    C284    C    0.30054   0.03521   0.41100   1.000
    C285    C    0.30060   0.53490   0.41093   1.000
    C286    C    0.80056   0.03521   0.41100   1.000
    C287    C    0.80061   0.53490   0.41093   1.000
    C288    C    0.27741   0.08232   0.40597   1.000
    C289    C    0.27756   0.58205   0.40578   1.000
    C290    C    0.77743   0.08232   0.40590   1.000
    C291    C    0.77757   0.58205   0.40579   1.000
    C292    C    0.17494   0.11823   0.36945   1.000
    C293    C    0.17520   0.61806   0.36919   1.000
    C294    C    0.67495   0.11823   0.36945   1.000
    C295    C    0.67520   0.61806   0.36922   1.000
    C296    C    0.11253   0.39481   0.35123   1.000
    C297    C    0.11264   0.89499   0.35119   1.000
    C298    C    0.61253   0.39482   0.35126   1.000
    C299    C    0.61265   0.89499   0.35120   1.000
    C300    C    0.39811   0.21044   0.83000   1.000
    C301    C    0.39843   0.71045   0.83010   1.000
    C302    C    0.89812   0.21044   0.83000   1.000
    C303    C    0.89844   0.71045   0.83010   1.000
    C304    C    0.35010   0.27236   0.79753   1.000
    C305    C    0.35039   0.77235   0.79760   1.000
    C306    C    0.85011   0.27236   0.79753   1.000
    C307    C    0.85040   0.77235   0.79760   1.000
    C308    C    0.02123   0.18411   0.51093   1.000
    C309    C    0.02171   0.68401   0.51101   1.000
    C310    C    0.52124   0.18411   0.51093   1.000
    C311    C    0.52172   0.68401   0.51101   1.000
    C312    C    0.12655   0.23989   0.59865   1.000
    C313    C    0.12708   0.73950   0.59882   1.000
    C314    C    0.62656   0.23989   0.59865   1.000
    C315    C    0.62709   0.73950   0.59882   1.000
    C316    C    0.13196   0.19253   0.82413   1.000
    C317    C    0.13227   0.69258   0.82420   1.000
    C318    C    0.63197   0.19253   0.82413   1.000
    C319    C    0.63228   0.69258   0.82420   1.000
    C320    C    0.11926   0.26933   0.88831   1.000
    C321    C    0.11954   0.76938   0.88834   1.000
    C322    C    0.61927   0.26934   0.88830   1.000
    C323    C    0.61955   0.76938   0.88834   1.000
    N324    N    0.09653   0.22056   0.25101   1.000
    N325    N    0.09681   0.72055   0.25108   1.000
    N326    N    0.59654   0.22056   0.25101   1.000
    N327    N    0.59682   0.72055   0.25108   1.000
    N328    N    0.06548   0.26037   0.22962   1.000
    N329    N    0.06580   0.76038   0.22970   1.000
    N330    N    0.56549   0.26037   0.22962   1.000
    N331    N    0.56581   0.76038   0.22970   1.000
    N332    N    0.15484   0.27038   0.15051   1.000
    N333    N    0.15516   0.77038   0.15059   1.000
    N334    N    0.65485   0.27038   0.15051   1.000
    N335    N    0.65517   0.77038   0.15059   1.000
    N336    N    0.42502   0.30908   0.53720   1.000
    N337    N    0.42550   0.80882   0.53732   1.000
    N338    N    0.92504   0.30908   0.53720   1.000
    N339    N    0.92551   0.80882   0.53732   1.000
    N340    N    0.35659   0.27335   0.48009   1.000
    N341    N    0.35711   0.77290   0.48028   1.000
    N342    N    0.85660   0.27335   0.48009   1.000
    N343    N    0.85712   0.77290   0.48020   1.000
    N344    N    0.44812   0.28654   0.40355   1.000
    N345    N    0.44864   0.78636   0.40367   1.000
    N346    N    0.94813   0.28654   0.40355   1.000
    N347    N    0.94865   0.78636   0.40367   1.000
    N348    N    0.40961   0.27483   0.18525   1.000
    N349    N    0.40989   0.77485   0.18531   1.000
    N350    N    0.90962   0.27483   0.18525   1.000
    N351    N    0.90990   0.77485   0.18531   1.000
    N352    N    0.32339   0.23510   0.05950   1.000
    N353    N    0.32370   0.73518   0.05950   1.000
    N354    N    0.82340   0.23510   0.05950   1.000
    N355    N    0.82371   0.73518   0.05953   1.000
    N356    N    0.31484   0.28459   0.10109   1.000
    N357    N    0.31517   0.78468   0.10110   1.000
    N358    N    0.81485   0.28459   0.10109   1.000
    N359    N    0.81518   0.78468   0.10114   1.000
    N360    N    0.40323   0.27943   0.74888   1.000
    N361    N    0.40352   0.77942   0.74895   1.000
    N362    N    0.90324   0.27943   0.74888   1.000
    N363    N    0.90353   0.77942   0.74895   1.000
    N364    N    0.43424   0.23960   0.77025   1.000
    N365    N    0.43456   0.73961   0.77034   1.000
    N366    N    0.93425   0.23960   0.77025   1.000
    N367    N    0.93457   0.73961   0.77034   1.000
    N368    N    0.34489   0.22960   0.84937   1.000
    N369    N    0.34520   0.72960   0.84945   1.000
    N370    N    0.84490   0.22960   0.84937   1.000
    N371    N    0.84521   0.72960   0.84945   1.000
    N372    N    0.07455   0.19115   0.46264   1.000
    N373    N    0.07503   0.69089   0.46276   1.000
    N374    N    0.57456   0.19115   0.46264   1.000
    N375    N    0.57504   0.69089   0.46270   1.000
    N376    N    0.14295   0.22707   0.51969   1.000
    N377    N    0.14346   0.72662   0.51987   1.000
    N378    N    0.64296   0.22706   0.51969   1.000
    N379    N    0.64347   0.72662   0.51987   1.000
    N380    N    0.05141   0.21362   0.59629   1.000
    N381    N    0.05193   0.71344   0.59641   1.000
    N382    N    0.55142   0.21361   0.59629   1.000
    N383    N    0.55194   0.71344   0.59641   1.000
    N384    N    0.09015   0.22513   0.81464   1.000
    N385    N    0.09043   0.72515   0.81471   1.000
    N386    N    0.59016   0.22513   0.81464   1.000
    N387    N    0.59044   0.72515   0.81471   1.000
    N388    N    0.17634   0.26481   0.94042   1.000
    N389    N    0.17665   0.76489   0.94046   1.000
    N390    N    0.67636   0.26481   0.94042   1.000
    N391    N    0.67666   0.76489   0.94046   1.000
    N392    N    0.18487   0.21530   0.89881   1.000
    N393    N    0.18520   0.71539   0.89887   1.000
    N394    N    0.68488   0.21531   0.89881   1.000
    N395    N    0.68521   0.71539   0.89887   1.000
    O396    O    0.07910   0.32166   0.71460   1.000
    O397    O    0.07955   0.82159   0.71459   1.000
    O398    O    0.57911   0.32166   0.71461   1.000
    O399    O    0.57956   0.82159   0.71459   1.000
    O400    O    0.04669   0.40096   0.72266   1.000
    O401    O    0.04694   0.90080   0.72250   1.000
    O402    O    0.54670   0.40096   0.72266   1.000
    O403    O    0.54695   0.90080   0.72255   1.000
    O404    O    0.22192   0.10230   0.89268   1.000
    O405    O    0.27945   0.82619   0.59608   1.000
    O406    O    0.77909   0.32637   0.59643   1.000
    O407    O    0.77946   0.82619   0.59609   1.000
    O408    O    0.39187   0.39756   0.67400   1.000
    O409    O    0.39211   0.89743   0.67387   1.000
    O410    O    0.89187   0.39756   0.67401   1.000
    O411    O    0.89212   0.89743   0.67388   1.000
    O412    O    0.45053   0.11971   0.70396   1.000
    O413    O    0.45061   0.61979   0.70393   1.000
    O414    O    0.95054   0.11971   0.70397   1.000
    O415    O    0.95062   0.61979   0.70394   1.000
    O416    O    0.37361   0.14275   0.60745   1.000
    O417    O    0.37388   0.64297   0.60735   1.000
    O418    O    0.87361   0.14275   0.60746   1.000
    O419    O    0.87389   0.64297   0.60736   1.000
    O420    O    0.42050   0.17839   0.28537   1.000
    O421    O    0.42095   0.67832   0.28534   1.000
    O422    O    0.92052   0.17839   0.28537   1.000
    O423    O    0.92096   0.67832   0.28535   1.000
    O424    O    0.45310   0.09918   0.27739   1.000
    O425    O    0.45336   0.59902   0.27728   1.000
    O426    O    0.95311   0.09918   0.27739   1.000
    O427    O    0.95337   0.59902   0.27720   1.000
    O428    O    0.27801   0.39760   0.10725   1.000
    O429    O    0.27811   0.89768   0.10727   1.000
    O430    O    0.77802   0.39760   0.10726   1.000
    O431    O    0.77813   0.89768   0.10727   1.000
    O432    O    0.15968   0.37936   0.04370   1.000
    O433    O    0.15975   0.87932   0.04372   1.000
    O434    O    0.65969   0.37936   0.04376   1.000
    O435    O    0.65976   0.87932   0.04372   1.000
    O436    O    0.22060   0.17379   0.40386   1.000
    O437    O    0.22096   0.67361   0.40352   1.000
    O438    O    0.72061   0.17379   0.40386   1.000
    O439    O    0.72097   0.67361   0.40351   1.000
    O440    O    0.10793   0.10255   0.32608   1.000
    O441    O    0.10817   0.60242   0.32595   1.000
    O442    O    0.60794   0.10255   0.32600   1.000
    O443    O    0.60819   0.60242   0.32594   1.000
    O444    O    0.04943   0.38019   0.29603   1.000
    O445    O    0.04951   0.88027   0.29600   1.000
    O446    O    0.54945   0.38018   0.29602   1.000
    O447    O    0.54953   0.88026   0.29600   1.000
    O448    O    0.12617   0.35702   0.39262   1.000
    O449    O    0.12644   0.85723   0.39250   1.000
    O450    O    0.62619   0.35701   0.39260   1.000
    O451    O    0.62646   0.85723   0.39250   1.000
loop_
    _geom_bond_atom_site_label_1
    _geom_bond_atom_site_label_2
    _geom_bond_distance
    _geom_bond_site_symmetry_2
    _ccdc_geom_bond_type
    O432   C132      1.25858      .   S
    O435   C135      1.25821      .   S
    O433   C133      1.25821      .   S
    O434   C134      1.25834      .   S
    H91    C255      1.08895  1_565   S
    H89    C253      1.08889  1_565   S
    H88    C254      1.08895      .   S
    H90    C256      1.08860      .   S
    N352   N356      1.38101      .   S
    N352   C237      1.33522      .   S
    N352   Zn19      2.01671  1_554   S
    N353   N357      1.38097      .   S
    N353   C238      1.33551      .   S
    N353   Zn20      2.01621  1_554   S
    N354   N358      1.38100      .   S
    N354   C239      1.33524      .   S
    N354   Zn21      2.01671  1_554   S
    N355   N359      1.38105      .   S
    N355   C240      1.33527      .   S
    N355   Zn22      2.01660  1_554   S
    Zn9    N358      2.05220      .   S
    Zn9    O430      1.97098      .   S
    Zn9    N334      2.06006      .   S
    Zn9    N390      2.01669  1_554   S
    Zn7    N356      2.05218      .   S
    Zn7    O428      1.97098      .   S
    Zn7    N332      2.06006      .   S
    Zn7    N388      2.01670  1_554   S
    Zn10   N359      2.05272      .   S
    Zn10   O431      1.97085      .   S
    Zn10   N335      2.06052      .   S
    Zn10   N391      2.01672  1_554   S
    Zn8    N357      2.05263      .   S
    Zn8    O429      1.97085      .   S
    Zn8    N333      2.06053      .   S
    Zn8    N389      2.01672  1_554   S
    C133   O429      1.30368      .   S
    C133   C250      1.49391      .   S
    C135   O431      1.30366      .   S
    C135   C252      1.49393      .   S
    C132   O428      1.30357      .   S
    C132   C249      1.49379      .   S
    C134   O430      1.30358      .   S
    C134   C251      1.49378      .   S
    C255   C252      1.40229  1_545   S
    C255   C259      1.39435      .   S
    C253   C250      1.40229  1_545   S
    C253   C257      1.39425      .   S
    C256   C251      1.40243      .   S
    C256   C260      1.39457      .   S
    C254   C249      1.40243      .   S
    C254   C258      1.39457      .   S
    H82    C239      1.08412      .   S
    H80    C237      1.08413      .   S
    H81    C238      1.08413      .   S
    H83    C240      1.08413      .   S
    N356   C233      1.33459      .   S
    N358   C235      1.33458      .   S
    N357   C234      1.33572      .   S
    N359   C236      1.33530      .   S
    H94    C259      1.09016      .   S
    H92    C257      1.09006      .   S
    H95    C260      1.09019      .   S
    H93    C258      1.09017      .   S
    C237   N348      1.35415      .   S
    C239   N350      1.35415      .   S
    C240   N351      1.35409      .   S
    C238   N349      1.35409      .   S
    C250   C245      1.39897  1_565   S
    C252   C247      1.39896  1_565   S
    C251   C248      1.39902      .   S
    C249   C246      1.39902      .   S
    C257   C261      1.39344      .   S
    C259   C263      1.39325      .   S
    C260   C264      1.39326      .   S
    C258   C262      1.39326      .   S
    H60    C217      1.08552      .   S
    H62    C219      1.08552      .   S
    H61    C218      1.08555      .   S
    H63    C220      1.08558      .   S
    N332   C217      1.35914      .   S
    N332   C221      1.35463      .   S
    N334   C219      1.35914      .   S
    N334   C223      1.35463      .   S
    N333   C218      1.35916      .   S
    N333   C222      1.35461      .   S
    N335   C220      1.35914      .   S
    N335   C224      1.35473      .   S
    C248   H87       1.08733      .   S
    C248   C244      1.39901      .   S
    C246   H85       1.08733      .   S
    C246   C242      1.39897      .   S
    C247   H86       1.08733      .   S
    C247   C243      1.39901      .   S
    C245   H84       1.08733      .   S
    C245   C241      1.39904      .   S
    C219   N330      1.33010      .   S
    C217   N328      1.33008      .   S
    C218   N329      1.32997      .   S
    C220   N331      1.32997      .   S
    C235   N350      1.35415      .   S
    C235   H78       1.08489      .   S
    C233   N348      1.35413      .   S
    C233   H76       1.08562      .   S
    C236   N351      1.35410      .   S
    C236   H79       1.08509      .   S
    C234   N349      1.35412      .   S
    C234   H77       1.08508      .   S
    C261   C241      1.40254      .   S
    C261   H96       1.08886      .   S
    C263   C243      1.40252      .   S
    C263   H98       1.08886      .   S
    C262   C242      1.40255      .   S
    C262   H97       1.08886      .   S
    C264   C244      1.40260      .   S
    C264   H99       1.08887      .   S
    N348   Zn32      2.09168      .   S
    N350   Zn1       2.09162      .   S
    N351   Zn2       2.09164      .   S
    N349   Zn0       2.09169      .   S
    C242   C266      1.49635      .   S
    C244   C268      1.49670      .   S
    C243   C267      1.49669      .   S
    C241   C265      1.49666      .   S
    C223   H66       1.08444      .   S
    C223   N326      1.33574      .   S
    C221   H64       1.08442      .   S
    C221   N324      1.33572      .   S
    C222   H65       1.08443      .   S
    C222   N325      1.33585      .   S
    C224   H67       1.08441      .   S
    C224   N327      1.33579      .   S
    N328   N324      1.37689      .   S
    N328   Zn1       2.05753  1_455   S
    N330   N326      1.37690      .   S
    N330   Zn32      2.05784      .   S
    N329   N325      1.37700      .   S
    N329   Zn2       2.05704  1_455   S
    N331   N327      1.37702      .   S
    N331   Zn0       2.05735      .   S
    N326   Zn17      2.02116      .   S
    N324   Zn15      2.02114      .   S
    N327   Zn18      2.02177      .   S
    N325   Zn16      2.02175      .   S
    C266   O425      1.29586      .   S
    C266   O421      1.26084      .   S
    C268   O427      1.29539      .   S
    C268   O423      1.26062      .   S
    C265   O424      1.29556      .   S
    C265   O420      1.26065      .   S
    C267   O426      1.29556      .   S
    C267   O422      1.26064      .   S
    O427   Zn16      1.95763  1_655   S
    O425   Zn18      1.95758      .   S
    O426   Zn15      1.95700  1_655   S
    O424   Zn17      1.95720      .   S
    Zn1    O444      2.04777  1_655   S
    Zn1    N346      2.05667      .   S
    Zn32   O446      2.04778      .   S
    Zn32   N344      2.05670      .   S
    Zn0    O447      2.04811      .   S
    Zn0    N345      2.05583      .   S
    Zn2    O445      2.04813  1_655   S
    Zn2    N347      2.05582      .   S
    O447   C299      1.29579      .   S
    O445   C297      1.29582      .   S
    O446   C298      1.29577      .   S
    O444   C296      1.29581      .   S
    O443   Zn18      1.98109      .   S
    O443   C295      1.27604      .   S
    O441   Zn16      1.98105      .   S
    O441   C293      1.27602      .   S
    O442   Zn17      1.98069      .   S
    O442   C294      1.27658      .   S
    O440   Zn15      1.98062      .   S
    O440   C292      1.27619      .   S
    Zn16   N373      2.03976      .   S
    Zn18   N375      2.03890      .   S
    Zn15   N372      2.03897      .   S
    Zn17   N374      2.03897      .   S
    H104   C273      1.08825      .   S
    H106   C275      1.08813      .   S
    H107   C274      1.08811  1_565   S
    H105   C272      1.08808  1_565   S
    H74    C231      1.08136      .   S
    H72    C229      1.08137      .   S
    H75    C232      1.08162      .   S
    H73    C230      1.08133      .   S
    C297   C277      1.50164      .   S
    C297   O449      1.26100      .   S
    C299   C279      1.50156      .   S
    C299   O451      1.26103      .   S
    C296   C276      1.50162      .   S
    C296   O448      1.26108      .   S
    C298   C278      1.50153      .   S
    C298   O450      1.26107      .   S
    C273   C276      1.39748      .   S
    C273   C269      1.40488      .   S
    C275   C278      1.39765      .   S
    C275   C271      1.40485      .   S
    C272   C277      1.39755  1_545   S
    C272   C136      1.40499      .   S
    C274   C279      1.39769  1_545   S
    C274   C270      1.40498      .   S
    C276   C280      1.40199      .   S
    C277   C281      1.40307      .   S
    C278   C282      1.40296      .   S
    C279   C283      1.40295      .   S
    C293   C269      1.49056      .   S
    C293   O437      1.28557      .   S
    C295   C271      1.49043      .   S
    C295   O439      1.28555      .   S
    C292   C136      1.49075      .   S
    C292   O436      1.28543      .   S
    C294   C270      1.49076      .   S
    C294   O438      1.28547      .   S
    C271   C291      1.40222      .   S
    C269   C289      1.40204      .   S
    C270   C290      1.40194      .   S
    C136   C288      1.40207      .   S
    C280   H108      1.09056      .   S
    C280   C285      1.39277      .   S
    C283   H111      1.08927      .   S
    C283   C286      1.39279  1_565   S
    C281   H109      1.08911      .   S
    C281   C284      1.39279  1_565   S
    C282   H110      1.08906      .   S
    C282   C287      1.39288      .   S
    C231   N346      1.34912      .   S
    C231   N342      1.33665      .   S
    C229   N344      1.34913      .   S
    C229   N340      1.33665      .   S
    C232   N347      1.34911      .   S
    C232   N343      1.33561      .   S
    C230   N345      1.34911      .   S
    C230   N341      1.33673      .   S
    O439   Zn26      2.06823      .   S
    O437   Zn24      2.06811      .   S
    N344   C225      1.35456      .   S
    N346   C227      1.35457      .   S
    N345   C226      1.35445      .   S
    N347   C228      1.35445      .   S
    O438   Zn25      2.07009      .   S
    O436   Zn23      2.07010      .   S
    C289   C285      1.39359      .   S
    C289   H117      1.08717      .   S
    C291   C287      1.39361      .   S
    C291   H119      1.08717      .   S
    C290   C286      1.39375      .   S
    C290   H118      1.08724      .   S
    C288   C284      1.39367      .   S
    C288   H116      1.08718      .   S
    C285   H113      1.08937      .   S
    C287   H115      1.08935      .   S
    C286   H114      1.08850      .   S
    C284   H112      1.08936      .   S
    N372   C308      1.33518      .   S
    N372   N376      1.38305      .   S
    N374   C310      1.33518      .   S
    N374   N378      1.38305      .   S
    N375   C311      1.33570      .   S
    N375   N379      1.38366      .   S
    N373   C309      1.33509      .   S
    N373   N377      1.38324      .   S
    N342   Zn25      2.02442      .   S
    N342   N338      1.38325      .   S
    N340   Zn23      2.02445      .   S
    N340   N336      1.38324      .   S
    N343   Zn26      2.02382      .   S
    N343   N339      1.38350      .   S
    N341   Zn24      2.02342      .   S
    N341   N337      1.38298      .   S
    H128   C310      1.08414      .   S
    H130   C308      1.08396  1_655   S
    H131   C309      1.08396  1_655   S
    H129   C311      1.08415      .   S
    C227   H68       1.08396  1_655   S
    C227   N338      1.33509      .   S
    C225   H70       1.08414      .   S
    C225   N336      1.33507      .   S
    C226   H71       1.08414      .   S
    C226   N337      1.33518      .   S
    C228   H69       1.08395  1_655   S
    C228   N339      1.33520      .   S
    Zn25   N378      2.02352      .   S
    Zn25   O406      2.06830      .   S
    Zn23   N376      2.02350      .   S
    Zn23   O215      2.06822      .   S
    Zn26   N379      2.02447      .   S
    Zn26   O407      2.07022      .   S
    Zn24   N377      2.02447      .   S
    Zn24   O405      2.07018      .   S
    C308   N380      1.35445      .   S
    C310   N382      1.35444      .   S
    C309   N381      1.35455      .   S
    C311   N383      1.35455      .   S
    N376   C312      1.33661      .   S
    N378   C314      1.33661      .   S
    N377   C313      1.33665      .   S
    N379   C315      1.33665      .   S
    N338   Zn5       2.03968      .   S
    N336   Zn3       2.03969      .   S
    N339   Zn6       2.03901      .   S
    N337   Zn4       2.03902      .   S
    H53    C198      1.08934      .   S
    H55    C200      1.08934      .   S
    H52    C197      1.08936      .   S
    H54    C199      1.08936      .   S
    H59    C204      1.08717      .   S
    H57    C202      1.08717      .   S
    H56    C201      1.08719      .   S
    H58    C203      1.08716      .   S
    C200   C204      1.39366      .   S
    C200   C195      1.39279  1_565   S
    C198   C202      1.39366      .   S
    C198   C193      1.39278  1_565   S
    C197   C201      1.39363      .   S
    C197   C194      1.39287      .   S
    C199   C203      1.39362      .   S
    C199   C196      1.39289      .   S
    C204   C184      1.40210      .   S
    C202   C182      1.40211      .   S
    C203   C183      1.40206      .   S
    C201   C181      1.40192      .   S
    O405   C206      1.28542      .   S
    O407   C100      1.28544      .   S
    N380   C312      1.34912      .   S
    N380   Zn11      2.05590      .   S
    N382   C314      1.34912      .   S
    N382   Zn13      2.05595      .   S
    N383   C315      1.34913      .   S
    N383   Zn14      2.05680      .   S
    N381   C313      1.34913      .   S
    N381   Zn12      2.05609      .   S
    O215   C205      1.28554      .   S
    O406   C207      1.28552      .   S
    C314   H139      1.08143      .   S
    C312   H137      1.08102      .   S
    C315   H140      1.08137      .   S
    C313   H138      1.08096      .   S
    H49    C194      1.08928      .   S
    H51    C196      1.08914      .   S
    H50    C195      1.08927      .   S
    H48    C193      1.08930      .   S
    C196   C192      1.40305      .   S
    O417   C102      1.26100      .   S
    C194   C190      1.40293      .   S
    O419   C216      1.26108      .   S
    C195   C191      1.40296      .   S
    C193   C189      1.40294      .   S
    O416   C101      1.26108      .   S
    O418   C103      1.26104      .   S
    C182   C206      1.49078      .   S
    C182   C186      1.40499      .   S
    C184   C100      1.49078      .   S
    C184   C188      1.40498      .   S
    C181   C205      1.49067      .   S
    C181   C185      1.40490      .   S
    C183   C207      1.49054      .   S
    C183   C187      1.40489      .   S
    C100   O411      1.27619      .   S
    C206   O409      1.27619      .   S
    C207   O410      1.27607      .   S
    C205   O408      1.27605      .   S
    C190   C185      1.39768      .   S
    C190   C102      1.50155      .   S
    C189   C186      1.39769  1_545   S
    C189   C101      1.50157      .   S
    C192   C187      1.39767      .   S
    C192   C216      1.50154      .   S
    C191   C188      1.39767  1_545   S
    C191   C103      1.50158      .   S
    C188   H46       1.08813  1_565   S
    C186   H44       1.08813  1_565   S
    C185   H45       1.08815      .   S
    C187   H47       1.08813      .   S
    C216   O415      1.29576      .   S
    C102   O413      1.29579      .   S
    C103   O414      1.29585      .   S
    C101   O412      1.29580      .   S
    Zn4    O409      1.98067      .   S
    Zn4    O403      1.95716      .   S
    Zn4    N361      2.02109      .   S
    Zn6    O411      1.98064      .   S
    Zn6    O401      1.95684  1_655   S
    Zn6    N363      2.02108      .   S
    Zn3    O408      1.98106      .   S
    Zn3    O402      1.95759      .   S
    Zn3    N360      2.02184      .   S
    Zn5    O410      1.98105      .   S
    Zn5    O400      1.95739  1_655   S
    Zn5    N362      2.02184      .   S
    O413   Zn14      2.04777      .   S
    O415   Zn12      2.04791  1_655   S
    O412   Zn13      2.04818      .   S
    O414   Zn11      2.04817  1_655   S
    Zn12   N367      2.05796  1_455   S
    Zn12   N385      2.09212      .   S
    Zn11   N366      2.05700  1_455   S
    Zn11   N384      2.09155      .   S
    Zn13   N364      2.05730      .   S
    Zn13   N386      2.09160      .   S
    Zn14   N365      2.05785      .   S
    Zn14   N387      2.09167      .   S
    O399   C176      1.26064      .   S
    O397   C174      1.26064      .   S
    O396   C173      1.26063      .   S
    O398   C175      1.26060      .   S
    O401   C174      1.29569      .   S
    O403   C176      1.29557      .   S
    O402   C175      1.29561      .   S
    O400   C173      1.29564      .   S
    C174   C150      1.49658      .   S
    C176   C152      1.49664      .   S
    C173   C149      1.49670      .   S
    C175   C151      1.49674      .   S
    N362   N366      1.37695      .   S
    N362   C306      1.33576      .   S
    N360   N364      1.37696      .   S
    N360   C304      1.33578      .   S
    N363   N367      1.37692      .   S
    N363   C307      1.33571      .   S
    N361   N365      1.37691      .   S
    N361   C305      1.33576      .   S
    N364   C300      1.33008      .   S
    N366   C302      1.33006      .   S
    N367   C303      1.33009      .   S
    N365   C301      1.33014      .   S
    H141   C316      1.08516      .   S
    H143   C318      1.08515      .   S
    H142   C317      1.08511      .   S
    H144   C319      1.08512      .   S
    H42    C171      1.08879      .   S
    H40    C169      1.08886      .   S
    H43    C172      1.08889      .   S
    H41    C170      1.08887      .   S
    H126   C306      1.08441      .   S
    H124   C304      1.08443      .   S
    H127   C307      1.08443      .   S
    H125   C305      1.08442      .   S
    C306   N370      1.35470      .   S
    C304   N368      1.35470      .   S
    C307   N371      1.35463      .   S
    C305   N369      1.35465      .   S
    C150   C170      1.40255      .   S
    C150   C154      1.39907      .   S
    C152   C172      1.40251      .   S
    C152   C156      1.39906      .   S
    C149   C169      1.40260      .   S
    C149   C153      1.39901      .   S
    C151   C171      1.40253      .   S
    C151   C155      1.39901      .   S
    H30    C156      1.08733      .   S
    H28    C154      1.08735      .   S
    H29    C155      1.08730      .   S
    H27    C153      1.08734      .   S
    N384   C316      1.35411      .   S
    N384   C320      1.35420      .   S
    N386   C318      1.35415      .   S
    N386   C322      1.35409      .   S
    N385   C317      1.35405      .   S
    N385   C321      1.35406      .   S
    N387   C319      1.35405      .   S
    N387   C323      1.35406      .   S
    C171   C167      1.39338      .   S
    C169   C165      1.39326      .   S
    C172   C168      1.39326      .   S
    C170   C166      1.39325      .   S
    C316   N392      1.33518      .   S
    C318   N394      1.33518      .   S
    C317   N393      1.33523      .   S
    C319   N395      1.33524      .   S
    C300   N368      1.35918      .   S
    C300   H120      1.08554      .   S
    C302   N370      1.35916      .   S
    C302   H122      1.08556      .   S
    C301   N369      1.35914      .   S
    C301   H121      1.08552      .   S
    C303   N371      1.35914      .   S
    C303   H123      1.08553      .   S
    C154   C157      1.39896  1_565   S
    C156   C159      1.39895  1_565   S
    C155   C160      1.39901      .   S
    C153   C158      1.39903      .   S
    N368   Zn19      2.06052      .   S
    N370   Zn21      2.06054      .   S
    N371   Zn22      2.06012      .   S
    N369   Zn20      2.06010      .   S
    C167   H38       1.09017      .   S
    C167   C163      1.39434      .   S
    C165   H36       1.09017      .   S
    C165   C161      1.39412      .   S
    C166   H37       1.09016      .   S
    C166   C162      1.39436      .   S
    C168   H39       1.09014      .   S
    C168   C164      1.39436      .   S
    C160   C163      1.40228      .   S
    C160   C180      1.49379      .   S
    C158   C161      1.40200      .   S
    C158   C178      1.49377      .   S
    C157   C162      1.40229  1_545   S
    C157   C177      1.49386      .   S
    C159   C164      1.40229  1_545   S
    C159   C179      1.49384      .   S
    C322   H147      1.08413      .   S
    C322   N390      1.33528      .   S
    C320   H145      1.08411      .   S
    C320   N388      1.33519      .   S
    C323   H148      1.08413      .   S
    C323   N391      1.33530      .   S
    C321   H146      1.08415      .   S
    C321   N389      1.33530      .   S
    O209   C179      1.30361      .   S
    O209   Zn21      1.97089      .   S
    O404   C177      1.30361      .   S
    O404   Zn19      1.97091      .   S
    O210   C180      1.30355      .   S
    O210   Zn22      1.97100      .   S
    O208   C178      1.30353      .   S
    O208   Zn20      1.97100      .   S
    N394   Zn21      2.05270      .   S
    N394   N390      1.38103      .   S
    N392   Zn19      2.05271      .   S
    N392   N388      1.38105      .   S
    N395   Zn22      2.05213      .   S
    N395   N391      1.38100      .   S
    N393   Zn20      2.05214      .   S
    N393   N389      1.38100      .   S
    C161   H33       1.08948      .   S
    C163   H35       1.08896      .   S
    C164   H34       1.08884  1_565   S
    C162   H31       1.08889  1_565   S
    C180   O214      1.25834      .   S
    C178   O212      1.25748      .   S
    C179   O213      1.25833      .   S
    C177   O211      1.25830      .   S
