# CIF file generated by openbabel 2.4.90, see http://openbabel.sf.net
data_I
_chemical_name_common ''
_cell_length_a 19.673
_cell_length_b 24.252
_cell_length_c 15.389
_cell_angle_alpha 96.079
_cell_angle_beta 98.001
_cell_angle_gamma 113.54
_space_group_name_H-M_alt 'P 1'
_space_group_name_Hall 'P 1'
loop_
    _symmetry_equiv_pos_as_xyz
    x,y,z
loop_
    _atom_site_label
    _atom_site_type_symbol
    _atom_site_fract_x
    _atom_site_fract_y
    _atom_site_fract_z
    _atom_site_occupancy
    Zn0     Zn   0.49606   0.78800   0.29252   1.000
    Zn1     Zn   0.99573   0.28795   0.29251   1.000
    Zn2     Zn   0.99606   0.78800   0.29252   1.000
    Zn3     Zn   0.44299   0.34186   0.66994   1.000
    Zn4     Zn   0.44323   0.84175   0.66992   1.000
    Zn5     Zn   0.94300   0.34186   0.66994   1.000
    Zn6     Zn   0.94324   0.84175   0.66992   1.000
    Zn7     Zn   0.22693   0.30838   0.06664   1.000
    Zn8     Zn   0.22722   0.80845   0.06669   1.000
    Zn9     Zn   0.72694   0.30838   0.06664   1.000
    Zn10    Zn   0.72723   0.80845   0.06669   1.000
    Zn11    Zn   0.00399   0.21198   0.70744   1.000
    Zn12    Zn   0.00433   0.71203   0.70740   1.000
    Zn13    Zn   0.50400   0.21198   0.70744   1.000
    Zn14    Zn   0.50433   0.71203   0.70745   1.000
    Zn15    Zn   0.05681   0.15823   0.33004   1.000
    Zn16    Zn   0.05705   0.65812   0.33001   1.000
    Zn17    Zn   0.55682   0.15823   0.33004   1.000
    Zn18    Zn   0.55706   0.65812   0.33001   1.000
    Zn19    Zn   0.27282   0.19153   0.93327   1.000
    Zn20    Zn   0.27311   0.69160   0.93332   1.000
    Zn21    Zn   0.77284   0.19153   0.93327   1.000
    Zn22    Zn   0.77312   0.69160   0.93332   1.000
    Zn23    Zn   0.24976   0.25022   0.49995   1.000
    Zn24    Zn   0.25030   0.74975   0.50001   1.000
    Zn25    Zn   0.74977   0.25021   0.49995   1.000
    Zn26    Zn   0.75031   0.74975   0.50001   1.000
    Zn27    Zn   0.49572   0.28795   0.29251   1.000
