# CIF file generated by openbabel 2.4.90, see http://openbabel.sf.net
data_I
_chemical_name_common ''
_cell_length_a 19.673
_cell_length_b 24.252
_cell_length_c 15.389
_cell_angle_alpha 96.079
_cell_angle_beta 98.001
_cell_angle_gamma 113.54
_space_group_name_H-M_alt 'P 1'
_space_group_name_Hall 'P 1'
loop_
    _symmetry_equiv_pos_as_xyz
    x,y,z
loop_
    _atom_site_label
    _atom_site_type_symbol
    _atom_site_fract_x
    _atom_site_fract_y
    _atom_site_fract_z
    _atom_site_occupancy
    Zr0     Zr   0.49572   0.28795   0.29251   1.000
    Zr1     Zr   0.49606   0.78800   0.29252   1.000
    Zr2     Zr   0.99573   0.28795   0.29251   1.000
    Zr3     Zr   0.99606   0.78800   0.29252   1.000
    Zr4     Zr   0.44299   0.34186   0.66994   1.000
    Zr5     Zr   0.44323   0.84175   0.66992   1.000
    Zr6     Zr   0.94300   0.34186   0.66994   1.000
    Zr7     Zr   0.94324   0.84175   0.66992   1.000
    Zr8     Zr   0.22693   0.30838   0.06664   1.000
    Zr9     Zr   0.22722   0.80845   0.06669   1.000
    Zr10    Zr   0.72694   0.30838   0.06664   1.000
    Zr11    Zr   0.72723   0.80845   0.06669   1.000
    Zr12    Zr   0.00399   0.21198   0.70744   1.000
    Zr13    Zr   0.00433   0.71203   0.70740   1.000
    Zr14    Zr   0.50400   0.21198   0.70744   1.000
    Zr15    Zr   0.50433   0.71203   0.70745   1.000
    Zr16    Zr   0.05681   0.15823   0.33004   1.000
    Zr17    Zr   0.05705   0.65812   0.33001   1.000
    Zr18    Zr   0.55682   0.15823   0.33004   1.000
    Zr19    Zr   0.55706   0.65812   0.33001   1.000
    Zr20    Zr   0.27282   0.19153   0.93327   1.000
    Zr21    Zr   0.27311   0.69160   0.93332   1.000
    Zr22    Zr   0.77284   0.19153   0.93327   1.000
    Zr23    Zr   0.77312   0.69160   0.93332   1.000
    Zr24    Zr   0.24976   0.25022   0.49995   1.000
    Zr25    Zr   0.25030   0.74975   0.50001   1.000
    Zr26    Zr   0.74977   0.25021   0.49995   1.000
    Zr27    Zr   0.75031   0.74975   0.50001   1.000
    N28     N    0.92198   0.78805   0.45291   1.000
    O29     O    0.86285   0.77469   0.47151   1.000
    O30     O    0.92818   0.80666   0.52826   1.000
    O31     O    0.94717   0.78761   0.40050   1.000
    N32     N    0.30214   0.98343   0.62279   1.000
    O33     O    0.38970   0.07464   0.66425   1.000
    O34     O    0.28351   0.88570   0.58542   1.000
    O35     O    0.35991   0.92651   0.64734   1.000
    N36     N    0.86768   0.76794   0.13585   1.000
    O37     O    0.83304   0.74066   0.06614   1.000
    O38     O    0.81944   0.78225   0.10988   1.000
    O39     O    0.91033   0.77468   0.18738   1.000
    N40     N    0.22217   0.46507   0.84351   1.000
    O41     O    0.10850   0.41824   0.76991   1.000
    O42     O    0.23487   0.55603   0.87826   1.000
    N43     N    0.27787   0.53491   0.15640   1.000
    O44     O    0.39154   0.58174   0.23002   1.000
    O45     O    0.26517   0.44395   0.12167   1.000
    N46     N    0.77770   0.03490   0.15640   1.000
    O47     O    0.89133   0.08180   0.23006   1.000
    O48     O    0.76519   0.94398   0.12169   1.000
    N49     N    0.07859   0.71167   0.54717   1.000
    O50     O    0.13773   0.72493   0.52855   1.000
    O51     O    0.07231   0.69309   0.47178   1.000
    O52     O    0.05336   0.71220   0.59954   1.000
    N53     N    0.92148   0.28830   0.45279   1.000
    O54     O    0.86233   0.27504   0.47140   1.000
    O55     O    0.94670   0.28777   0.40041   1.000
    O56     O    0.92775   0.30689   0.52818   1.000
    N57     N    0.19790   0.01654   0.37715   1.000
    O58     O    0.11034   0.92534   0.33571   1.000
    O59     O    0.21654   0.11427   0.41453   1.000
    O60     O    0.14014   0.07347   0.35261   1.000
    N61     N    0.62042   0.25645   0.19268   1.000
    O62     O    0.57551   0.26530   0.22687   1.000
    O63     O    0.65566   0.27291   0.15063   1.000
    O64     O    0.59855   0.22292   0.24160   1.000
    N65     N    0.12071   0.75645   0.19276   1.000
    O66     O    0.15595   0.77293   0.15070   1.000
    O67     O    0.09882   0.72289   0.24165   1.000
    O68     O    0.07582   0.76532   0.22694   1.000
    N69     N    0.80208   0.48366   0.62287   1.000
    O70     O    0.85976   0.42668   0.64742   1.000
    O71     O    0.88978   0.57478   0.66427   1.000
    O72     O    0.78326   0.38597   0.58553   1.000
    N73     N    0.22235   0.96508   0.84354   1.000
    O74     O    0.10872   0.91818   0.76988   1.000
    O75     O    0.23486   0.05600   0.87826   1.000
    N76     N    0.87965   0.74353   0.80728   1.000
    O77     O    0.84440   0.72707   0.84933   1.000
    O78     O    0.92455   0.73468   0.77308   1.000
    O79     O    0.90151   0.77706   0.75836   1.000
    N80     N    0.42147   0.28830   0.45279   1.000
    O81     O    0.44669   0.28777   0.40041   1.000
    O82     O    0.42774   0.30689   0.52818   1.000
    O83     O    0.36232   0.27504   0.47140   1.000
    N84     N    0.30207   0.48366   0.62287   1.000
    O85     O    0.38977   0.57478   0.66428   1.000
    O86     O    0.35975   0.42668   0.64742   1.000
    O87     O    0.28325   0.38597   0.58553   1.000
    N88     N    0.69798   0.51633   0.37707   1.000
    O89     O    0.64030   0.57330   0.35252   1.000
    O90     O    0.71681   0.61400   0.41441   1.000
    O91     O    0.61028   0.42520   0.33567   1.000
    N92     N    0.07808   0.21193   0.54704   1.000
    O93     O    0.13721   0.22528   0.52843   1.000
    O94     O    0.07188   0.19331   0.47169   1.000
    O95     O    0.05289   0.21236   0.59945   1.000
    N96     N    0.19797   0.51633   0.37702   1.000
    O97     O    0.11028   0.42520   0.33565   1.000
    O98     O    0.21680   0.61400   0.41439   1.000
    O99     O    0.14029   0.57330   0.35250   1.000
    N100    N    0.27769   0.03490   0.15640   1.000
    O101    O    0.39133   0.08180   0.23006   1.000
    O102    O    0.26518   0.94398   0.12169   1.000
    N103    N    0.36766   0.76794   0.13584   1.000
    O104    O    0.33303   0.74067   0.06612   1.000
    O105    O    0.31943   0.78225   0.10987   1.000
    O106    O    0.41032   0.77468   0.18738   1.000
    N107    N    0.86737   0.26789   0.13577   1.000
    O108    O    0.83275   0.24060   0.06608   1.000
    O109    O    0.91002   0.27464   0.18733   1.000
    O110    O    0.81914   0.28219   0.10982   1.000
    N111    N    0.72218   0.46507   0.84353   1.000
    O112    O    0.60851   0.41824   0.76991   1.000
    O113    O    0.73488   0.55603   0.87827   1.000
    N114    N    0.13268   0.73209   0.86416   1.000
    O115    O    0.16731   0.75938   0.93387   1.000
    O116    O    0.09003   0.72534   0.81261   1.000
    O117    O    0.18092   0.71779   0.89013   1.000
    N118    N    0.36736   0.26789   0.13579   1.000
    O119    O    0.33273   0.24060   0.06609   1.000
    O120    O    0.31912   0.28219   0.10983   1.000
    O121    O    0.41001   0.27464   0.18733   1.000
    N122    N    0.80215   0.98343   0.62279   1.000
    O123    O    0.85992   0.92651   0.64735   1.000
    O124    O    0.88971   0.07464   0.66425   1.000
    O125    O    0.78352   0.88570   0.58542   1.000
    N126    N    0.69792   0.01654   0.37712   1.000
    O127    O    0.61035   0.92534   0.33569   1.000
    O128    O    0.64015   0.07347   0.35257   1.000
    O129    O    0.71655   0.11427   0.41451   1.000
    N130    N    0.42198   0.78805   0.45292   1.000
    O131    O    0.44716   0.78761   0.40051   1.000
    O132    O    0.42817   0.80666   0.52827   1.000
    O133    O    0.36284   0.77469   0.47153   1.000
    N134    N    0.63269   0.73209   0.86416   1.000
    O135    O    0.59004   0.72534   0.81262   1.000
    O136    O    0.66732   0.75938   0.93387   1.000
    O137    O    0.68093   0.71779   0.89013   1.000
    N138    N    0.77789   0.53491   0.15641   1.000
    O139    O    0.76518   0.44395   0.12168   1.000
    O140    O    0.89155   0.58174   0.23001   1.000
    N141    N    0.57809   0.21193   0.54704   1.000
    O142    O    0.55290   0.21236   0.59945   1.000
    O143    O    0.57189   0.19331   0.47169   1.000
    O144    O    0.63723   0.22528   0.52843   1.000
    N145    N    0.87934   0.24353   0.80720   1.000
    O146    O    0.84410   0.22705   0.84926   1.000
    O147    O    0.92423   0.23466   0.77302   1.000
    O148    O    0.90123   0.27709   0.75830   1.000
    N149    N    0.72237   0.96508   0.84355   1.000
    O150    O    0.60873   0.91818   0.76989   1.000
    O151    O    0.73488   0.05600   0.87826   1.000
    N152    N    0.37933   0.24353   0.80720   1.000
    O153    O    0.40122   0.27709   0.75830   1.000
    O154    O    0.42422   0.23466   0.77302   1.000
    O155    O    0.34409   0.22705   0.84926   1.000
    N156    N    0.37963   0.74353   0.80728   1.000
    O157    O    0.34439   0.72707   0.84933   1.000
    O158    O    0.40150   0.77706   0.75836   1.000
    O159    O    0.42454   0.73468   0.77309   1.000
    N160    N    0.62072   0.75645   0.19276   1.000
    O161    O    0.57583   0.76532   0.22694   1.000
    O162    O    0.65596   0.77293   0.15070   1.000
    O163    O    0.59883   0.72289   0.24165   1.000
    N164    N    0.13238   0.23204   0.86411   1.000
    O165    O    0.08972   0.22530   0.81257   1.000
    O166    O    0.18061   0.21773   0.89007   1.000
    O167    O    0.16701   0.25932   0.93382   1.000
    N168    N    0.57860   0.71167   0.54716   1.000
    O169    O    0.57232   0.69309   0.47176   1.000
    O170    O    0.63774   0.72493   0.52855   1.000
    O171    O    0.55337   0.71220   0.59955   1.000
    N172    N    0.63239   0.23204   0.86411   1.000
    O173    O    0.58974   0.22530   0.81257   1.000
    O174    O    0.66702   0.25932   0.93382   1.000
    O175    O    0.68063   0.21773   0.89007   1.000
    N176    N    0.12041   0.25645   0.19268   1.000
    O177    O    0.15565   0.27291   0.15063   1.000
    O178    O    0.09854   0.22292   0.24160   1.000
    O179    O    0.07551   0.26530   0.22687   1.000
loop_
    _geom_bond_atom_site_label_1
    _geom_bond_atom_site_label_2
    _geom_bond_distance
    _geom_bond_site_symmetry_2
    _ccdc_geom_bond_type
    N28    O29       1.16259      .   S
    Zr27   O29       2.17190      .   S
    N28    O30       1.17020      .   S
    Zr7    O30       2.18859      .   S
    N28    O31       1.00480      .   S
    Zr3    O31       2.03166      .   S
    N32    O33       2.14908  1_565   S
    Zr14   O33       3.11836      .   S
    N32    O34       2.24531      .   S
    Zr25   O34       3.18554      .   S
    N32    O35       2.14106      .   S
    Zr5    O35       3.11742      .   S
    N36    O37       1.15707      .   S
    Zr23   O37       2.16259  1_556   S
    N36    O38       1.16938      .   S
    Zr11   O38       2.19333      .   S
    N36    O39       1.01859      .   S
    Zr3    O39       2.06433      .   S
    N40    O41       2.13704      .   S
    Zr6    O41       3.09583  1_655   S
    N40    O42       2.11829      .   S
    Zr21   O42       3.05790      .   S
    N43    O44       2.13719      .   S
    Zr19   O44       3.09607      .   S
    N43    O45       2.11825      .   S
    Zr8    O45       3.05785      .   S
    N46    O47       2.13691      .   S
    Zr16   O47       3.09563  1_455   S
    N46    O48       2.11849  1_545   S
    Zr11   O48       3.05808      .   S
    N49    O50       1.16310      .   S
    Zr25   O50       2.17277      .   S
    N49    O51       1.17018      .   S
    Zr17   O51       2.18889      .   S
    N49    O52       1.00513      .   S
    Zr13   O52       2.03217      .   S
    N53    O54       1.16310      .   S
    Zr26   O54       2.17274      .   S
    N53    O55       1.00523      .   S
    Zr2    O55       2.03255      .   S
    N53    O56       1.17021      .   S
    Zr6    O56       2.18889      .   S
    N57    O58       2.14905  1_545   S
    Zr3    O58       3.11828  1_655   S
    N57    O59       2.24523      .   S
    Zr24   O59       3.18535      .   S
    N57    O60       2.14100      .   S
    Zr16   O60       3.11733      .   S
    N61    O62       1.16641      .   S
    Zr0    O62       2.19064      .   S
    N61    O63       1.00865      .   S
    Zr10   O63       2.03800      .   S
    N61    O64       1.16337      .   S
    Zr18   O64       2.17303      .   S
    N65    O66       1.00878      .   S
    Zr9    O66       2.03835      .   S
    N65    O67       1.16355      .   S
    Zr17   O67       2.17348      .   S
    N65    O68       1.16617      .   S
    Zr3    O68       2.18998  1_655   S
    N69    O70       2.14078      .   S
    Zr6    O70       3.11720      .   S
    N69    O71       2.14864      .   S
    Zr13   O71       3.11796  1_455   S
    N69    O72       2.24302      .   S
    Zr26   O72       3.18058      .   S
    N73    O74       2.13697      .   S
    Zr7    O74       3.09556  1_655   S
    N73    O75       2.11851  1_565   S
    Zr20   O75       3.05813      .   S
    N76    O77       1.00867      .   S
    Zr23   O77       2.03805      .   S
    N76    O78       1.16645      .   S
    Zr13   O78       2.19073  1_455   S
    N76    O79       1.16334      .   S
    Zr7    O79       2.17296      .   S
    N80    O81       1.00523      .   S
    Zr0    O81       2.03258      .   S
    N80    O82       1.17021      .   S
    Zr4    O82       2.18888      .   S
    N80    O83       1.16312      .   S
    Zr24   O83       2.17278      .   S
    N84    O85       2.14869      .   S
    Zr15   O85       3.11803      .   S
    N84    O86       2.14081      .   S
    Zr4    O86       3.11724      .   S
    N84    O87       2.24301      .   S
    Zr24   O87       3.18056      .   S
    N88    O89       2.14077      .   S
    Zr19   O89       3.11721      .   S
    N88    O90       2.24293      .   S
    Zr27   O90       3.18039      .   S
    N88    O91       2.14871      .   S
    Zr0    O91       3.11806      .   S
    N92    O93       1.16266      .   S
    Zr24   O93       2.17178      .   S
    N92    O94       1.17005      .   S
    Zr16   O94       2.18842      .   S
    N92    O95       1.00495      .   S
    Zr12   O95       2.03186      .   S
    N96    O97       2.14864      .   S
    Zr2    O97       3.11798  1_655   S
    N96    O98       2.24295      .   S
    Zr25   O98       3.18043      .   S
    N96    O99       2.14070      .   S
    Zr17   O99       3.11716      .   S
    N100   O101      2.13700      .   S
    Zr18   O101      3.09583      .   S
    N100   O102      2.11849  1_545   S
    Zr9    O102      3.05809      .   S
    N103   O104      1.15710      .   S
    Zr21   O104      2.16243  1_556   S
    N103   O105      1.16940      .   S
    Zr9    O105      2.19329      .   S
    N103   O106      1.01866      .   S
    Zr1    O106      2.06442      .   S
    N107   O108      1.15693      .   S
    Zr22   O108      2.16248  1_556   S
    N107   O109      1.01867      .   S
    Zr2    O109      2.06440      .   S
    N107   O110      1.16919      .   S
    Zr10   O110      2.19290      .   S
    N111   O112      2.13716      .   S
    Zr4    O112      3.09605      .   S
    N111   O113      2.11828      .   S
    Zr23   O113      3.05789      .   S
    N114   O115      1.15707      .   S
    Zr9    O115      2.16263  1_554   S
    N114   O116      1.01867      .   S
    Zr13   O116      2.06464      .   S
    N114   O117      1.16921      .   S
    Zr21   O117      2.19288      .   S
    N118   O119      1.15701      .   S
    Zr20   O119      2.16256  1_556   S
    N118   O120      1.16921      .   S
    Zr8    O120      2.19291      .   S
    N118   O121      1.01862      .   S
    Zr0    O121      2.06438      .   S
    N122   O123      2.14103      .   S
    Zr7    O123      3.11737      .   S
    N122   O124      2.14904  1_565   S
    Zr12   O124      3.11828  1_455   S
    N122   O125      2.24530      .   S
    Zr27   O125      3.18551      .   S
    N126   O127      2.14907  1_545   S
    Zr1    O127      3.11835      .   S
    N126   O128      2.14103      .   S
    Zr18   O128      3.11730      .   S
    N126   O129      2.24525      .   S
    Zr26   O129      3.18540      .   S
    N130   O131      1.00490      .   S
    Zr1    O131      2.03177      .   S
    N130   O132      1.17009      .   S
    Zr5    O132      2.18848      .   S
    N130   O133      1.16269      .   S
    Zr25   O133      2.17175      .   S
    N134   O135      1.01857      .   S
    Zr15   O135      2.06432      .   S
    N134   O136      1.15707      .   S
    Zr11   O136      2.16263  1_554   S
    N134   O137      1.16921      .   S
    Zr23   O137      2.19287      .   S
    N138   O139      2.11825      .   S
    Zr10   O139      3.05786      .   S
    N138   O140      2.13698      .   S
    Zr17   O140      3.09594  1_455   S
    N141   O142      1.00492      .   S
    Zr14   O142      2.03185      .   S
    N141   O143      1.17009      .   S
    Zr18   O143      2.18846      .   S
    N141   O144      1.16271      .   S
    Zr26   O144      2.17183      .   S
    N145   O146      1.00879      .   S
    Zr22   O146      2.03837      .   S
    N145   O147      1.16618      .   S
    Zr12   O147      2.18997  1_455   S
    N145   O148      1.16354      .   S
    Zr6    O148      2.17352      .   S
    N149   O150      2.13699      .   S
    Zr5    O150      3.09580      .   S
    N149   O151      2.11852  1_565   S
    Zr22   O151      3.05813      .   S
    N152   O153      1.16356      .   S
    Zr4    O153      2.17355      .   S
    N152   O154      1.16626      .   S
    Zr14   O154      2.19021      .   S
    N152   O155      1.00880      .   S
    Zr20   O155      2.03837      .   S
    N156   O157      1.00867      .   S
    Zr21   O157      2.03804      .   S
    N156   O158      1.16336      .   S
    Zr5    O158      2.17298      .   S
    N156   O159      1.16643      .   S
    Zr15   O159      2.19065      .   S
    N160   O161      1.16625      .   S
    Zr1    O161      2.19022      .   S
    N160   O162      1.00879      .   S
    Zr11   O162      2.03837      .   S
    N160   O163      1.16356      .   S
    Zr19   O163      2.17350      .   S
    N164   O165      1.01858      .   S
    Zr12   O165      2.06427      .   S
    N164   O166      1.16938      .   S
    Zr20   O166      2.19332      .   S
    N164   O167      1.15707      .   S
    Zr8    O167      2.16263  1_554   S
    N168   O169      1.17038      .   S
    Zr19   O169      2.18866      .   S
    N168   O170      1.16310      .   S
    Zr27   O170      2.17277      .   S
    N168   O171      1.00532      .   S
    Zr15   O171      2.03271      .   S
    N172   O173      1.01859      .   S
    Zr14   O173      2.06431      .   S
    N172   O174      1.15708      .   S
    Zr10   O174      2.16264  1_554   S
    N172   O175      1.16938      .   S
    Zr22   O175      2.19332      .   S
    N176   O177      1.00865      .   S
    Zr8    O177      2.03800      .   S
    N176   O178      1.16335      .   S
    Zr16   O178      2.17300      .   S
    N176   O179      1.16633      .   S
    Zr2    O179      2.19040  1_655   S
