# CIF file generated by openbabel 2.4.90, see http://openbabel.sf.net
data_I
_chemical_name_common ''
_cell_length_a 13.254
_cell_length_b 13.186
_cell_length_c 13.156
_cell_angle_alpha 93.741
_cell_angle_beta 96.041
_cell_angle_gamma 83.687
_space_group_name_H-M_alt 'P 1'
_space_group_name_Hall 'P 1'
loop_
    _symmetry_equiv_pos_as_xyz
    x,y,z
loop_
    _atom_site_label
    _atom_site_type_symbol
    _atom_site_fract_x
    _atom_site_fract_y
    _atom_site_fract_z
    _atom_site_occupancy
    C0      C    0.81229   0.61943   0.73607   1.000
    C1      C    0.69185   0.73240   0.61850   1.000
    C2      C    0.18737   0.38032   0.26379   1.000
    C3      C    0.30745   0.26697   0.38050   1.000
    C4      C    0.75080   0.72749   0.72792   1.000
    C5      C    0.24797   0.27171   0.27165   1.000
    F6      F    0.88401   0.61785   0.81770   1.000
    F7      F    0.86235   0.58726   0.65215   1.000
    F8      F    0.75062   0.54624   0.74711   1.000
    F9      F    0.61865   0.81300   0.61350   1.000
    F10     F    0.64433   0.64707   0.58730   1.000
    F11     F    0.75563   0.74254   0.54643   1.000
    F12     F    0.11569   0.38217   0.18210   1.000
    F13     F    0.13757   0.41267   0.34785   1.000
    F14     F    0.24930   0.45339   0.25285   1.000
    F15     F    0.38032   0.18633   0.38623   1.000
    F16     F    0.35565   0.35229   0.40907   1.000
    F17     F    0.24440   0.25776   0.45352   1.000
loop_
    _geom_bond_atom_site_label_1
    _geom_bond_atom_site_label_2
    _geom_bond_distance
    _geom_bond_site_symmetry_2
    _ccdc_geom_bond_type
    F12    C2        1.35704      .   S
    F14    C2        1.35633      .   S
    C2     C5        1.56707      .   S
    C2     F13       1.36774      .   S
    C5     C3        1.56183      .   S
    C3     F15       1.35593      .   S
    C3     F16       1.36645      .   S
    C3     F17       1.35734      .   S
    F11    C1        1.35703      .   S
    F10    C1        1.36838      .   S
    F9     C1        1.35797      .   S
    C1     C4        1.56565      .   S
    F7     C0        1.36755      .   S
    C4     C0        1.56593      .   S
    C0     F8        1.35536      .   S
    C0     F6        1.35684      .   S
