# CIF file generated by openbabel 2.4.90, see http://openbabel.sf.net
data_I
_chemical_name_common ''
_cell_length_a 13.254
_cell_length_b 13.186
_cell_length_c 13.156
_cell_angle_alpha 93.741
_cell_angle_beta 96.041
_cell_angle_gamma 83.687
_space_group_name_H-M_alt 'P 1'
_space_group_name_Hall 'P 1'
loop_
    _symmetry_equiv_pos_as_xyz
    x,y,z
loop_
    _atom_site_label
    _atom_site_type_symbol
    _atom_site_fract_x
    _atom_site_fract_y
    _atom_site_fract_z
    _atom_site_occupancy
    Lv0     Lv   0.49831   0.99975   0.50021   1.000
    Lv1     Lv   0.38867   0.26745   0.12275   1.000
    Lv2     Lv   0.10851   0.12330   0.27100   1.000
    Lv3     Lv   0.49881   0.49984   0.49934   1.000
    Lv4     Lv   0.99846   0.49944   0.99945   1.000
    Lv5     Lv   0.99835   0.50006   0.49980   1.000
    Lv6     Lv   0.88956   0.87670   0.72975   1.000
    Lv7     Lv   0.60964   0.73098   0.87630   1.000
