# CIF file generated by openbabel 2.4.90, see http://openbabel.sf.net
data_I
_chemical_name_common ''
_cell_length_a 13.254
_cell_length_b 13.186
_cell_length_c 13.156
_cell_angle_alpha 93.741
_cell_angle_beta 96.041
_cell_angle_gamma 83.687
_space_group_name_H-M_alt 'P 1'
_space_group_name_Hall 'P 1'
loop_
    _symmetry_equiv_pos_as_xyz
    x,y,z
loop_
    _atom_site_label
    _atom_site_type_symbol
    _atom_site_fract_x
    _atom_site_fract_y
    _atom_site_fract_z
    _atom_site_occupancy
    Zn0     Zn   0.32513   0.72480   0.15899   1.000
    Zn1     Zn   0.82667   0.84049   0.27522   1.000
    Zn2     Zn   0.67124   0.27516   0.84001   1.000
    Zn3     Zn   0.16940   0.15982   0.72472   1.000
    C4      C    0.01008   0.06045   0.73149   1.000
    C5      C    0.78332   0.10499   0.74930   1.000
    C6      C    0.48724   0.73469   0.06048   1.000
    C7      C    0.71435   0.75126   0.10495   1.000
    C8      C    0.98761   0.93957   0.26909   1.000
    C9      C    0.21431   0.89495   0.25066   1.000
    C10     C    0.51001   0.26467   0.93802   1.000
    C11     C    0.28330   0.24796   0.89453   1.000
    O12     O    0.99492   0.14242   0.78397   1.000
    O13     O    0.08896   0.04038   0.67999   1.000
    O14     O    0.78223   0.15534   0.67154   1.000
    O15     O    0.73822   0.13421   0.83020   1.000
    O16     O    0.50260   0.78686   0.14245   1.000
    O17     O    0.40824   0.68375   0.04040   1.000
    O18     O    0.71505   0.67381   0.15553   1.000
    O19     O    0.76027   0.83125   0.13300   1.000
    O20     O    0.00430   0.85733   0.21752   1.000
    O21     O    0.90770   0.95962   0.31919   1.000
    O22     O    0.21734   0.84486   0.32887   1.000
    O23     O    0.25786   0.86557   0.16891   1.000
    O24     O    0.49717   0.20909   0.85792   1.000
    O25     O    0.58624   0.31971   0.95607   1.000
    O26     O    0.28469   0.32474   0.84348   1.000
    O27     O    0.23547   0.16910   0.86614   1.000
loop_
    _geom_bond_atom_site_label_1
    _geom_bond_atom_site_label_2
    _geom_bond_distance
    _geom_bond_site_symmetry_2
    _ccdc_geom_bond_type
    O17    C6        1.30032      .   S
    O17    Zn0       2.01517      .   S
    C6     O16       1.25114      .   S
    C7     O19       1.28923      .   S
    C7     O18       1.25345      .   S
    O19    Zn1       1.98430      .   S
    Zn0    O23       1.97142      .   S
    O23    C9        1.29118      .   S
    O20    C8        1.25226  1_455   S
    C9     O22       1.25328      .   S
    C8     O21       1.29948      .   S
    Zn1    O21       2.01933      .   S
    O14    C5        1.25335      .   S
    O13    Zn3       2.01984      .   S
    O13    C4        1.29883      .   S
    Zn3    O27       1.97339      .   S
    C4     O12       1.25276  1_455   S
    C5     O15       1.29158      .   S
    O15    Zn2       1.97199      .   S
    Zn2    O25       2.01128      .   S
    O26    C11       1.25374      .   S
    O24    C10       1.25118      .   S
    O27    C11       1.29117      .   S
    C10    O25       1.30084      .   S
