# CIF file generated by openbabel 2.4.90, see http://openbabel.sf.net
data_I
_chemical_name_common ''
_cell_length_a 13.254
_cell_length_b 13.186
_cell_length_c 13.156
_cell_angle_alpha 93.741
_cell_angle_beta 96.041
_cell_angle_gamma 83.687
_space_group_name_H-M_alt 'P 1'
_space_group_name_Hall 'P 1'
loop_
    _symmetry_equiv_pos_as_xyz
    x,y,z
loop_
    _atom_site_label
    _atom_site_type_symbol
    _atom_site_fract_x
    _atom_site_fract_y
    _atom_site_fract_z
    _atom_site_occupancy
    N0      N    0.49831   0.99975   0.50021   1.000
    N1      N    0.38867   0.26745   0.12275   1.000
    N2      N    0.10851   0.12330   0.27100   1.000
    O3      O    0.20388   0.25266   0.29852   1.000
    N4      N    0.49881   0.49984   0.49934   1.000
    N5      N    0.99846   0.49944   0.99945   1.000
    N6      N    0.99835   0.50006   0.49980   1.000
    N7      N    0.88956   0.87670   0.72975   1.000
    N8      N    0.60964   0.73098   0.87630   1.000
    O9      O    0.70724   0.70087   0.74770   1.000
    Zr10    Zr   0.65263   0.20902   0.83472   1.000
    O11     O    0.75122   0.08650   0.78686   1.000
    O12     O    0.75874   0.30883   0.88444   1.000
    O13     O    0.61044   0.30783   0.73602   1.000
    O14     O    0.54225   0.23787   0.94295   1.000
    Zr15    Zr   0.34467   0.79078   0.16439   1.000
    O16     O    0.45535   0.76142   0.05604   1.000
    O17     O    0.38683   0.69192   0.26291   1.000
    O18     O    0.23829   0.69067   0.11469   1.000
    O19     O    0.24635   0.91338   0.21294   1.000
    Zr20    Zr   0.15240   0.16355   0.78919   1.000
    O21     O    0.04239   0.05575   0.75963   1.000
    O22     O    0.25087   0.21083   0.91233   1.000
    O23     O    0.10975   0.26291   0.69120   1.000
    O24     O    0.25822   0.11471   0.69005   1.000
    Zr25    Zr   0.84514   0.83619   0.21064   1.000
    O26     O    0.74690   0.78841   0.08720   1.000
    O27     O    0.95532   0.94414   0.24068   1.000
    O28     O    0.88727   0.73706   0.30859   1.000
    O29     O    0.73878   0.88514   0.30999   1.000
loop_
    _geom_bond_atom_site_label_1
    _geom_bond_atom_site_label_2
    _geom_bond_distance
    _geom_bond_site_symmetry_2
    _ccdc_geom_bond_type
    N1     O3        3.56929      .   S
    N2     O3        2.22167      .   S
    N7     O9        3.56288      .   S
    N8     O9        2.22560      .   S
    Zr10   O11       2.07129      .   S
    N7     O11       3.23777  1_565   S
    Zr10   O12       2.05889      .   S
    N5     O12       4.35312      .   S
    Zr10   O13       1.89848      .   S
    N4     O13       4.18680      .   S
    Zr10   O14       2.13487      .   S
    N1     O14       3.25725  1_554   S
    Zr15   O16       2.13945      .   S
    N8     O16       3.26312  1_556   S
    Zr15   O17       1.89720      .   S
    N4     O17       4.18600      .   S
    Zr15   O18       2.06416      .   S
    N5     O18       4.36005  1_656   S
    Zr15   O19       2.07283      .   S
    N2     O19       3.23860  1_545   S
    Zr20   O21       2.13588      .   S
    N7     O21       3.25503  1_665   S
    Zr20   O22       2.07812      .   S
    N1     O22       3.24387  1_554   S
    Zr20   O23       1.89789      .   S
    N6     O23       4.18669  1_655   S
    Zr20   O24       2.03957      .   S
    N0     O24       4.33353  1_565   S
    Zr25   O26       2.08123      .   S
    N8     O26       3.24773  1_556   S
    Zr25   O27       2.13943      .   S
    N2     O27       3.25945  1_445   S
    Zr25   O28       1.89439      .   S
    N6     O28       4.18290      .   S
    Zr25   O29       2.04687      .   S
    N0     O29       4.33939      .   S
