# CIF file generated by openbabel 2.4.90, see http://openbabel.sf.net
data_I
_chemical_name_common ''
_cell_length_a 18.577
_cell_length_b 18.583
_cell_length_c 18.583
_cell_angle_alpha 90.001
_cell_angle_beta 90
_cell_angle_gamma 90
_space_group_name_H-M_alt 'P 1'
_space_group_name_Hall 'P 1'
loop_
    _symmetry_equiv_pos_as_xyz
    x,y,z
loop_
    _atom_site_label
    _atom_site_type_symbol
    _atom_site_fract_x
    _atom_site_fract_y
    _atom_site_fract_z
    _atom_site_occupancy
    N0      N    0.28229   0.28224   0.28223   1.000
    N1      N    0.28227   0.71776   0.71774   1.000
    N2      N    0.71773   0.71769   0.28224   1.000
    N3      N    0.71774   0.28225   0.71762   1.000
    N4      N    0.28226   0.28226   0.71773   1.000
    N5      N    0.71771   0.71773   0.71764   1.000
    N6      N    0.71772   0.28225   0.28223   1.000
    N7      N    0.28226   0.71774   0.28226   1.000
    Zr8     Zr   0.00000   0.49998   0.49999   1.000
    O9      O    0.88221   0.59684   0.59682   1.000
    O10     O    0.11778   0.59685   0.59684   1.000
    O11     O    0.11778   0.59684   0.40314   1.000
    O12     O    0.88222   0.40314   0.59671   1.000
    O13     O    0.11779   0.40313   0.40313   1.000
    O14     O    0.88222   0.59682   0.40314   1.000
    O15     O    0.88222   0.40313   0.40312   1.000
    O16     O    0.11777   0.40313   0.59684   1.000
    Zr17    Zr   0.50001   0.99999   0.49998   1.000
    O18     O    0.40316   0.88223   0.59685   1.000
    O19     O    0.59686   0.11777   0.59680   1.000
    O20     O    0.59684   0.11778   0.40313   1.000
    O21     O    0.40316   0.11778   0.59683   1.000
    O22     O    0.40317   0.11776   0.40312   1.000
    O23     O    0.59685   0.88219   0.40312   1.000
    O24     O    0.59684   0.88221   0.59681   1.000
    O25     O    0.40315   0.88222   0.40313   1.000
    Zr26    Zr   0.50000   0.49999   0.99998   1.000
    O27     O    0.59684   0.40314   0.11776   1.000
    O28     O    0.59684   0.40315   0.88217   1.000
    O29     O    0.40315   0.59685   0.11777   1.000
    O30     O    0.59685   0.59683   0.11776   1.000
    O31     O    0.40316   0.40314   0.11776   1.000
    O32     O    0.40315   0.59686   0.88221   1.000
    O33     O    0.40314   0.40315   0.88221   1.000
    O34     O    0.59684   0.59684   0.88218   1.000
loop_
    _geom_bond_atom_site_label_1
    _geom_bond_atom_site_label_2
    _geom_bond_distance
    _geom_bond_site_symmetry_2
    _ccdc_geom_bond_type
    Zr8    O9        3.35641  1_455   S
    N5     O9        4.40754      .   S
    Zr8    O10       3.35669      .   S
    N1     O10       4.40826      .   S
    Zr8    O11       3.35644      .   S
    N7     O11       4.40800      .   S
    Zr8    O12       3.35510  1_455   S
    N3     O12       4.40816      .   S
    Zr8    O13       3.35670      .   S
    N0     O13       4.40813      .   S
    Zr8    O14       3.35636  1_455   S
    N2     O14       4.40800      .   S
    Zr8    O15       3.35665  1_455   S
    N6     O15       4.40807      .   S
    Zr8    O16       3.35638      .   S
    N4     O16       4.40785      .   S
    Zr17   O18       3.35664      .   S
    N1     O18       4.40819      .   S
    Zr17   O19       3.35629  1_565   S
    N3     O19       4.40744      .   S
    Zr17   O20       3.35645  1_565   S
    N6     O20       4.40816      .   S
    Zr17   O21       3.35673  1_565   S
    N4     O21       4.40843      .   S
    Zr17   O22       3.35649  1_565   S
    N0     O22       4.40812      .   S
    Zr17   O23       3.35671      .   S
    N2     O23       4.40834      .   S
    Zr17   O24       3.35633      .   S
    N5     O24       4.40754      .   S
    Zr17   O25       3.35659      .   S
    N7     O25       4.40797      .   S
    Zr26   O27       3.35652  1_556   S
    N6     O27       4.40798      .   S
    Zr26   O28       3.35689      .   S
    N3     O28       4.40917      .   S
    Zr26   O29       3.35673  1_556   S
    N7     O29       4.40836      .   S
    Zr26   O30       3.35636  1_556   S
    N2     O30       4.40789      .   S
    Zr26   O31       3.35650  1_556   S
    N0     O31       4.40809      .   S
    Zr26   O32       3.35660      .   S
    N1     O32       4.40821      .   S
    Zr26   O33       3.35650      .   S
    N4     O33       4.40814      .   S
    Zr26   O34       3.35670      .   S
    N5     O34       4.40887      .   S
