# CIF file generated by openbabel 2.4.90, see http://openbabel.sf.net
data_I
_chemical_name_common ''
_cell_length_a 18.577
_cell_length_b 18.583
_cell_length_c 18.583
_cell_angle_alpha 90.001
_cell_angle_beta 90
_cell_angle_gamma 90
_space_group_name_H-M_alt 'P 1'
_space_group_name_Hall 'P 1'
loop_
    _symmetry_equiv_pos_as_xyz
    x,y,z
loop_
    _atom_site_label
    _atom_site_type_symbol
    _atom_site_fract_x
    _atom_site_fract_y
    _atom_site_fract_z
    _atom_site_occupancy
    C0      C    0.00000   0.62432   0.50001   1.000
    C1      C    0.00001   0.37563   0.49997   1.000
    C2      C    0.50002   0.00002   0.62435   1.000
    C3      C    0.50002   0.99997   0.37558   1.000
    C4      C    0.62436   0.49996   0.99998   1.000
    C5      C    0.37567   0.50001   0.00000   1.000
    C6      C    0.62433   0.99997   0.49997   1.000
    C7      C    0.37573   0.00001   0.49999   1.000
    C8      C    0.00002   0.49997   0.37573   1.000
    C9      C    0.00001   0.49999   0.62424   1.000
    C10     C    0.50001   0.62433   0.00000   1.000
    C11     C    0.50000   0.37567   0.99998   1.000
    C12     C    0.86877   0.71931   0.55501   1.000
    C13     C    0.13115   0.28059   0.55505   1.000
    C14     C    0.13118   0.71934   0.44497   1.000
    C15     C    0.86879   0.28064   0.44495   1.000
    C16     C    0.55499   0.86882   0.71932   1.000
    C17     C    0.55506   0.13110   0.28057   1.000
    C18     C    0.44499   0.13119   0.71930   1.000
    C19     C    0.44494   0.86885   0.28059   1.000
    C20     C    0.71933   0.55499   0.86873   1.000
    C21     C    0.28074   0.55495   0.13131   1.000
    C22     C    0.71934   0.44497   0.13122   1.000
    C23     C    0.28071   0.44507   0.86867   1.000
    C24     C    0.71923   0.86862   0.44500   1.000
    C25     C    0.28078   0.13130   0.44503   1.000
    C26     C    0.71935   0.13123   0.55498   1.000
    C27     C    0.28078   0.86868   0.55493   1.000
    C28     C    0.86869   0.55490   0.28079   1.000
    C29     C    0.13125   0.55500   0.71928   1.000
    C30     C    0.13129   0.44501   0.28073   1.000
    C31     C    0.86874   0.44503   0.71921   1.000
    C32     C    0.55503   0.71929   0.13116   1.000
    C33     C    0.55492   0.28074   0.86868   1.000
    C34     C    0.44494   0.71941   0.86888   1.000
    C35     C    0.44505   0.28072   0.13122   1.000
    C36     C    0.13123   0.28064   0.44490   1.000
    C37     C    0.86882   0.71933   0.44495   1.000
    C38     C    0.86881   0.28062   0.55502   1.000
    C39     C    0.13120   0.71934   0.55502   1.000
    C40     C    0.44496   0.13110   0.28056   1.000
    C41     C    0.44489   0.86896   0.71940   1.000
    C42     C    0.55506   0.86884   0.28057   1.000
    C43     C    0.55504   0.13117   0.71932   1.000
    C44     C    0.28065   0.44496   0.13121   1.000
    C45     C    0.71935   0.44497   0.86875   1.000
    C46     C    0.28071   0.55500   0.86871   1.000
    C47     C    0.71933   0.55495   0.13124   1.000
    C48     C    0.28076   0.13131   0.55495   1.000
    C49     C    0.71929   0.86870   0.55498   1.000
    C50     C    0.28076   0.86870   0.44506   1.000
    C51     C    0.71921   0.13135   0.44507   1.000
    C52     C    0.13127   0.44504   0.71920   1.000
    C53     C    0.86878   0.44496   0.28068   1.000
    C54     C    0.86875   0.55498   0.71928   1.000
    C55     C    0.13125   0.55497   0.28074   1.000
    C56     C    0.44489   0.28061   0.86891   1.000
    C57     C    0.44497   0.71937   0.13117   1.000
    C58     C    0.55503   0.28063   0.13113   1.000
    C59     C    0.55495   0.71927   0.86877   1.000
    C60     C    0.77180   0.77180   0.60829   1.000
    C61     C    0.22819   0.22818   0.60828   1.000
    C62     C    0.22818   0.77180   0.39172   1.000
    C63     C    0.77178   0.22820   0.39171   1.000
    C64     C    0.60823   0.77180   0.77181   1.000
    C65     C    0.60821   0.22820   0.22810   1.000
    C66     C    0.39176   0.22822   0.77181   1.000
    C67     C    0.39174   0.77182   0.22818   1.000
    C68     C    0.77180   0.60827   0.77100   1.000
    C69     C    0.22817   0.60829   0.22820   1.000
    C70     C    0.77183   0.39168   0.22810   1.000
    C71     C    0.22813   0.39169   0.77181   1.000
    C72     C    0.77179   0.77176   0.39171   1.000
    C73     C    0.22821   0.22817   0.39170   1.000
    C74     C    0.77185   0.22817   0.60828   1.000
    C75     C    0.22816   0.77185   0.60832   1.000
    C76     C    0.77182   0.60824   0.22819   1.000
    C77     C    0.22821   0.60828   0.77178   1.000
    C78     C    0.22820   0.39170   0.22819   1.000
    C79     C    0.77179   0.39173   0.77175   1.000
    C80     C    0.60826   0.77177   0.22815   1.000
    C81     C    0.60826   0.22817   0.77178   1.000
    C82     C    0.39175   0.77184   0.77180   1.000
    C83     C    0.39176   0.22816   0.22814   1.000
    C84     C    0.87787   0.67305   0.58912   1.000
    C85     C    0.12209   0.32688   0.58912   1.000
    C86     C    0.12210   0.67307   0.41088   1.000
    C87     C    0.87788   0.32691   0.41085   1.000
    C88     C    0.58911   0.87790   0.67306   1.000
    C89     C    0.58914   0.12205   0.32687   1.000
    C90     C    0.41090   0.12211   0.67308   1.000
    C91     C    0.41086   0.87791   0.32689   1.000
    C92     C    0.67306   0.58911   0.87786   1.000
    C93     C    0.32698   0.58909   0.12217   1.000
    C94     C    0.67308   0.41085   0.12210   1.000
    C95     C    0.32693   0.41091   0.87785   1.000
    C96     C    0.67302   0.87780   0.41080   1.000
    C97     C    0.32701   0.12214   0.41087   1.000
    C98     C    0.67309   0.12211   0.58910   1.000
    C99     C    0.32699   0.87786   0.58911   1.000
    C100    C    0.87785   0.58905   0.32700   1.000
    C101    C    0.12214   0.58911   0.67303   1.000
    C102    C    0.12217   0.41088   0.32697   1.000
    C103    C    0.87787   0.41089   0.67298   1.000
    C104    C    0.58914   0.67302   0.12200   1.000
    C105    C    0.58907   0.32697   0.87782   1.000
    C106    C    0.41085   0.67312   0.87790   1.000
    C107    C    0.41091   0.32696   0.12211   1.000
    C108    C    0.12213   0.32691   0.41086   1.000
    C109    C    0.87789   0.67304   0.41087   1.000
    C110    C    0.87790   0.32691   0.58910   1.000
    C111    C    0.12211   0.67307   0.58913   1.000
    C112    C    0.41088   0.12205   0.32686   1.000
    C113    C    0.41084   0.87798   0.67315   1.000
    C114    C    0.58914   0.87789   0.32686   1.000
    C115    C    0.58916   0.12207   0.67305   1.000
    C116    C    0.32693   0.41086   0.12210   1.000
    C117    C    0.67306   0.41087   0.87784   1.000
    C118    C    0.32695   0.58914   0.87786   1.000
    C119    C    0.67308   0.58908   0.12210   1.000
    C120    C    0.32699   0.12216   0.58900   1.000
    C121    C    0.67304   0.87784   0.58911   1.000
    C122    C    0.32699   0.87785   0.41090   1.000
    C123    C    0.67300   0.12216   0.41089   1.000
    C124    C    0.12213   0.41089   0.67298   1.000
    C125    C    0.87789   0.41085   0.32693   1.000
    C126    C    0.87787   0.58910   0.67303   1.000
    C127    C    0.12213   0.58910   0.32698   1.000
    C128    C    0.41082   0.32692   0.87794   1.000
    C129    C    0.41087   0.67309   0.12200   1.000
    C130    C    0.58914   0.32690   0.12204   1.000
    C131    C    0.58909   0.67302   0.87788   1.000
    C132    C    0.78001   0.68681   0.68682   1.000
    C133    C    0.84225   0.65250   0.65250   1.000
    C134    C    0.21995   0.31316   0.68682   1.000
    C135    C    0.15772   0.34747   0.65249   1.000
    C136    C    0.21996   0.68682   0.31318   1.000
    C137    C    0.15773   0.65251   0.34750   1.000
    C138    C    0.78002   0.31316   0.31316   1.000
    C139    C    0.84227   0.34746   0.34740   1.000
    C140    C    0.68679   0.78001   0.68682   1.000
    C141    C    0.65249   0.84224   0.65250   1.000
    C142    C    0.68678   0.21998   0.31317   1.000
    C143    C    0.65248   0.15775   0.34748   1.000
    C144    C    0.31319   0.21998   0.68680   1.000
    C145    C    0.34752   0.15776   0.65250   1.000
    C146    C    0.31318   0.78003   0.31317   1.000
    C147    C    0.34749   0.84226   0.34740   1.000
    C148    C    0.68679   0.68681   0.78000   1.000
    C149    C    0.65249   0.65248   0.84224   1.000
    C150    C    0.31318   0.68683   0.21998   1.000
    C151    C    0.34750   0.65251   0.15775   1.000
    C152    C    0.68680   0.31316   0.21995   1.000
    C153    C    0.65251   0.34747   0.15771   1.000
    C154    C    0.31316   0.31317   0.78003   1.000
    C155    C    0.34746   0.34750   0.84227   1.000
    C156    C    0.68680   0.77998   0.31315   1.000
    C157    C    0.65250   0.84221   0.34746   1.000
    C158    C    0.31321   0.21995   0.31314   1.000
    C159    C    0.34752   0.15771   0.34745   1.000
    C160    C    0.68683   0.21995   0.68680   1.000
    C161    C    0.65254   0.15771   0.65249   1.000
    C162    C    0.31318   0.78006   0.68685   1.000
    C163    C    0.34749   0.84230   0.65254   1.000
    C164    C    0.78002   0.68678   0.31318   1.000
    C165    C    0.84224   0.65246   0.34751   1.000
    C166    C    0.21998   0.68684   0.68682   1.000
    C167    C    0.15775   0.65251   0.65250   1.000
    C168    C    0.22000   0.31316   0.31310   1.000
    C169    C    0.15777   0.34747   0.34749   1.000
    C170    C    0.78003   0.31317   0.68600   1.000
    C171    C    0.84227   0.34748   0.65247   1.000
    C172    C    0.68682   0.68678   0.21995   1.000
    C173    C    0.65253   0.65246   0.15772   1.000
    C174    C    0.68680   0.31318   0.77998   1.000
    C175    C    0.65248   0.34750   0.84220   1.000
    C176    C    0.31319   0.68685   0.78003   1.000
    C177    C    0.34749   0.65254   0.84227   1.000
    C178    C    0.31320   0.31316   0.21995   1.000
    C179    C    0.34750   0.34749   0.15772   1.000
    C180    C    0.74860   0.74860   0.65685   1.000
    C181    C    0.25139   0.25138   0.65685   1.000
    C182    C    0.25138   0.74861   0.34315   1.000
    C183    C    0.74859   0.25139   0.34314   1.000
    C184    C    0.65681   0.74860   0.74861   1.000
    C185    C    0.65681   0.25139   0.25138   1.000
    C186    C    0.34316   0.25140   0.74860   1.000
    C187    C    0.34316   0.74862   0.25138   1.000
    C188    C    0.74859   0.65684   0.74860   1.000
    C189    C    0.25138   0.65685   0.25139   1.000
    C190    C    0.74861   0.34313   0.25136   1.000
    C191    C    0.25135   0.34313   0.74860   1.000
    C192    C    0.74860   0.74856   0.34314   1.000
    C193    C    0.25142   0.25137   0.34313   1.000
    C194    C    0.74864   0.25137   0.65684   1.000
    C195    C    0.25138   0.74864   0.65687   1.000
    C196    C    0.74861   0.65680   0.25138   1.000
    C197    C    0.25140   0.65686   0.74860   1.000
    C198    C    0.25141   0.34313   0.25138   1.000
    C199    C    0.74860   0.34315   0.74857   1.000
    C200    C    0.65684   0.74857   0.25130   1.000
    C201    C    0.65684   0.25138   0.74858   1.000
    C202    C    0.34316   0.74864   0.74863   1.000
    C203    C    0.34318   0.25136   0.25135   1.000
    C204    C    0.93001   0.62509   0.57318   1.000
    C205    C    0.06997   0.37486   0.57316   1.000
    C206    C    0.06998   0.62509   0.42683   1.000
    C207    C    0.93003   0.37486   0.42678   1.000
    C208    C    0.57319   0.93002   0.62510   1.000
    C209    C    0.57322   0.06992   0.37482   1.000
    C210    C    0.42684   0.06999   0.62512   1.000
    C211    C    0.42681   0.93003   0.37484   1.000
    C212    C    0.62512   0.57318   0.93001   1.000
    C213    C    0.37491   0.57320   0.06999   1.000
    C214    C    0.62515   0.42676   0.06993   1.000
    C215    C    0.37488   0.42684   0.93000   1.000
    C216    C    0.62508   0.92997   0.42678   1.000
    C217    C    0.37496   0.06998   0.42678   1.000
    C218    C    0.62514   0.06995   0.57318   1.000
    C219    C    0.37493   0.93003   0.57321   1.000
    C220    C    0.92999   0.57313   0.37497   1.000
    C221    C    0.06999   0.57319   0.62507   1.000
    C222    C    0.07002   0.42679   0.37492   1.000
    C223    C    0.93001   0.42681   0.62501   1.000
    C224    C    0.57323   0.62508   0.06994   1.000
    C225    C    0.57316   0.37491   0.92996   1.000
    C226    C    0.42678   0.62516   0.93006   1.000
    C227    C    0.42682   0.37491   0.06997   1.000
    C228    C    0.07001   0.37488   0.42681   1.000
    C229    C    0.93002   0.62508   0.42682   1.000
    C230    C    0.93002   0.37487   0.57314   1.000
    C231    C    0.06998   0.62510   0.57318   1.000
    C232    C    0.42682   0.06993   0.37482   1.000
    C233    C    0.42679   0.93009   0.62518   1.000
    C234    C    0.57321   0.93001   0.37482   1.000
    C235    C    0.57323   0.06995   0.62509   1.000
    C236    C    0.37489   0.42680   0.06996   1.000
    C237    C    0.62512   0.42678   0.93000   1.000
    C238    C    0.37489   0.57323   0.93000   1.000
    C239    C    0.62513   0.57315   0.06996   1.000
    C240    C    0.37495   0.07000   0.57319   1.000
    C241    C    0.62510   0.93000   0.57318   1.000
    C242    C    0.37494   0.93001   0.42680   1.000
    C243    C    0.62509   0.06996   0.42677   1.000
    C244    C    0.07001   0.42682   0.62501   1.000
    C245    C    0.93003   0.42678   0.37490   1.000
    C246    C    0.93000   0.57317   0.62507   1.000
    C247    C    0.07000   0.57317   0.37495   1.000
    C248    C    0.42675   0.37488   0.93006   1.000
    C249    C    0.42682   0.62512   0.06998   1.000
    C250    C    0.57322   0.37485   0.06991   1.000
    C251    C    0.57318   0.62507   0.93001   1.000
    O252    O    0.59918   0.40081   0.06992   1.000
    O253    O    0.58118   0.35088   0.09598   1.000
    O254    O    0.53661   0.37526   0.03494   1.000
    O255    O    0.64911   0.41880   0.09602   1.000
    O256    O    0.62475   0.46336   0.03496   1.000
    O257    O    0.59918   0.59911   0.06995   1.000
    O258    O    0.58118   0.64905   0.09597   1.000
    O259    O    0.53662   0.62470   0.03497   1.000
    O260    O    0.64910   0.58111   0.09603   1.000
    O261    O    0.62474   0.53655   0.03497   1.000
    O262    O    0.40085   0.40086   0.06996   1.000
    O263    O    0.35091   0.41883   0.09603   1.000
    O264    O    0.37528   0.46341   0.03498   1.000
    O265    O    0.41887   0.35094   0.09604   1.000
    O266    O    0.46341   0.37529   0.03498   1.000
    O267    O    0.40087   0.59916   0.06998   1.000
    O268    O    0.41884   0.64911   0.09599   1.000
    O269    O    0.46341   0.62472   0.03499   1.000
    O270    O    0.35095   0.58115   0.09608   1.000
    O271    O    0.37529   0.53661   0.03500   1.000
    O272    O    0.42792   0.69623   0.12659   1.000
    O273    O    0.37919   0.66280   0.13987   1.000
    O274    O    0.57208   0.69615   0.12658   1.000
    O275    O    0.62083   0.66274   0.13986   1.000
    O276    O    0.57208   0.30377   0.12659   1.000
    O277    O    0.62083   0.33718   0.13987   1.000
    O278    O    0.69621   0.57201   0.12667   1.000
    O279    O    0.66280   0.62077   0.13991   1.000
    O280    O    0.69621   0.42791   0.12666   1.000
    O281    O    0.66279   0.37916   0.13991   1.000
    O282    O    0.30379   0.42791   0.12665   1.000
    O283    O    0.33721   0.37917   0.13991   1.000
    O284    O    0.42798   0.30384   0.12666   1.000
    O285    O    0.37921   0.33722   0.13992   1.000
    O286    O    0.30386   0.57202   0.12674   1.000
    O287    O    0.33724   0.62080   0.13996   1.000
    O288    O    0.66966   0.33031   0.18883   1.000
    O289    O    0.33035   0.33032   0.18884   1.000
    O290    O    0.66967   0.66962   0.18884   1.000
    O291    O    0.33034   0.66967   0.18887   1.000
    O292    O    0.32819   0.28226   0.23565   1.000
    O293    O    0.28231   0.32814   0.23567   1.000
    O294    O    0.67183   0.71768   0.23563   1.000
    O295    O    0.71772   0.67179   0.23567   1.000
    O296    O    0.71771   0.32814   0.23565   1.000
    O297    O    0.67180   0.28227   0.23567   1.000
    O298    O    0.32817   0.71772   0.23568   1.000
    O299    O    0.28228   0.67184   0.23569   1.000
    O300    O    0.63251   0.23979   0.23974   1.000
    O301    O    0.76022   0.36740   0.23973   1.000
    O302    O    0.36747   0.23976   0.23975   1.000
    O303    O    0.63255   0.76017   0.23972   1.000
    O304    O    0.36745   0.76022   0.23978   1.000
    O305    O    0.76022   0.63252   0.23978   1.000
    O306    O    0.23980   0.36741   0.23978   1.000
    O307    O    0.23978   0.63257   0.23980   1.000
    O308    O    0.67182   0.76428   0.28223   1.000
    O309    O    0.32820   0.23566   0.28224   1.000
    O310    O    0.76431   0.32814   0.28226   1.000
    O311    O    0.67179   0.23569   0.28227   1.000
    O312    O    0.23570   0.32814   0.28224   1.000
    O313    O    0.32817   0.76433   0.28227   1.000
    O314    O    0.76432   0.67179   0.28228   1.000
    O315    O    0.23567   0.67184   0.28229   1.000
    O316    O    0.42792   0.12657   0.30371   1.000
    O317    O    0.57210   0.87337   0.30371   1.000
    O318    O    0.57210   0.12658   0.30372   1.000
    O319    O    0.42790   0.87338   0.30374   1.000
    O320    O    0.87334   0.42791   0.30380   1.000
    O321    O    0.12673   0.42795   0.30385   1.000
    O322    O    0.12669   0.57204   0.30386   1.000
    O323    O    0.87327   0.57197   0.30390   1.000
    O324    O    0.23571   0.28226   0.32811   1.000
    O325    O    0.18888   0.33031   0.33030   1.000
    O326    O    0.28231   0.23566   0.32813   1.000
    O327    O    0.33036   0.18883   0.33030   1.000
    O328    O    0.71770   0.76427   0.32815   1.000
    O329    O    0.66965   0.81110   0.33031   1.000
    O330    O    0.76430   0.28228   0.32815   1.000
    O331    O    0.81114   0.33031   0.33028   1.000
    O332    O    0.28228   0.76432   0.32816   1.000
    O333    O    0.33034   0.81114   0.33028   1.000
    O334    O    0.71768   0.23569   0.32816   1.000
    O335    O    0.66963   0.18887   0.33033   1.000
    O336    O    0.76431   0.71767   0.32816   1.000
    O337    O    0.81113   0.66962   0.33034   1.000
    O338    O    0.23567   0.71772   0.32817   1.000
    O339    O    0.18885   0.66967   0.33034   1.000
    O340    O    0.37920   0.13988   0.33715   1.000
    O341    O    0.41885   0.09599   0.35084   1.000
    O342    O    0.62082   0.86005   0.33716   1.000
    O343    O    0.58118   0.90395   0.35084   1.000
    O344    O    0.62081   0.13990   0.33718   1.000
    O345    O    0.58118   0.09599   0.35084   1.000
    O346    O    0.37918   0.86008   0.33715   1.000
    O347    O    0.41884   0.90397   0.35087   1.000
    O348    O    0.86008   0.37916   0.33716   1.000
    O349    O    0.90396   0.41881   0.35091   1.000
    O350    O    0.13997   0.37918   0.33723   1.000
    O351    O    0.09609   0.41884   0.35095   1.000
    O352    O    0.13993   0.62080   0.33724   1.000
    O353    O    0.09606   0.58113   0.35097   1.000
    O354    O    0.86005   0.62075   0.33726   1.000
    O355    O    0.90392   0.58109   0.35099   1.000
    O356    O    0.23981   0.23977   0.36741   1.000
    O357    O    0.76019   0.76016   0.36743   1.000
    O358    O    0.76018   0.23980   0.36743   1.000
    O359    O    0.23978   0.76021   0.36744   1.000
    O360    O    0.33724   0.86005   0.37915   1.000
    O361    O    0.86007   0.33719   0.37912   1.000
    O362    O    0.33726   0.13992   0.37916   1.000
    O363    O    0.66276   0.86000   0.37913   1.000
    O364    O    0.66274   0.13996   0.37918   1.000
    O365    O    0.13995   0.33719   0.37918   1.000
    O366    O    0.13991   0.66279   0.37919   1.000
    O367    O    0.86007   0.66275   0.37919   1.000
    O368    O    0.53662   0.03495   0.37520   1.000
    O369    O    0.59915   0.06994   0.40079   1.000
    O370    O    0.53662   0.96499   0.37520   1.000
    O371    O    0.59915   0.92999   0.40080   1.000
    O372    O    0.46342   0.03495   0.37520   1.000
    O373    O    0.40089   0.06996   0.40080   1.000
    O374    O    0.46342   0.96500   0.37521   1.000
    O375    O    0.40088   0.93002   0.40082   1.000
    O376    O    0.96502   0.46337   0.37532   1.000
    O377    O    0.93003   0.40082   0.40084   1.000
    O378    O    0.03502   0.46338   0.37533   1.000
    O379    O    0.07001   0.40084   0.40087   1.000
    O380    O    0.03501   0.53657   0.37534   1.000
    O381    O    0.06999   0.59913   0.40089   1.000
    O382    O    0.96500   0.53655   0.37535   1.000
    O383    O    0.93000   0.59910   0.40090   1.000
    O384    O    0.64905   0.90388   0.41879   1.000
    O385    O    0.69613   0.87321   0.42790   1.000
    O386    O    0.90396   0.35088   0.41881   1.000
    O387    O    0.87333   0.30378   0.42790   1.000
    O388    O    0.09607   0.35089   0.41884   1.000
    O389    O    0.12668   0.30378   0.42788   1.000
    O390    O    0.35098   0.09606   0.41883   1.000
    O391    O    0.30389   0.12672   0.42795   1.000
    O392    O    0.90395   0.64906   0.41884   1.000
    O393    O    0.87335   0.69619   0.42791   1.000
    O394    O    0.09604   0.64908   0.41886   1.000
    O395    O    0.12664   0.69620   0.42792   1.000
    O396    O    0.64905   0.09606   0.41883   1.000
    O397    O    0.69611   0.12675   0.42798   1.000
    O398    O    0.35096   0.90393   0.41885   1.000
    O399    O    0.30387   0.87328   0.42798   1.000
    O400    O    0.62471   0.03497   0.46337   1.000
    O401    O    0.37534   0.03500   0.46338   1.000
    O402    O    0.96502   0.37525   0.46337   1.000
    O403    O    0.62470   0.96497   0.46337   1.000
    O404    O    0.37534   0.96501   0.46340   1.000
    O405    O    0.03501   0.37526   0.46339   1.000
    O406    O    0.96501   0.62470   0.46341   1.000
    O407    O    0.03499   0.62471   0.46342   1.000
    O408    O    0.62471   0.96499   0.53658   1.000
    O409    O    0.62473   0.03496   0.53658   1.000
    O410    O    0.96502   0.37526   0.53656   1.000
    O411    O    0.03499   0.37525   0.53657   1.000
    O412    O    0.37534   0.03501   0.53659   1.000
    O413    O    0.37533   0.96502   0.53660   1.000
    O414    O    0.96501   0.62470   0.53660   1.000
    O415    O    0.03499   0.62471   0.53660   1.000
    O416    O    0.30389   0.87327   0.57202   1.000
    O417    O    0.30388   0.12673   0.57198   1.000
    O418    O    0.69617   0.87327   0.57205   1.000
    O419    O    0.69622   0.12667   0.57204   1.000
    O420    O    0.87332   0.69618   0.57206   1.000
    O421    O    0.12665   0.69621   0.57207   1.000
    O422    O    0.87336   0.30377   0.57206   1.000
    O423    O    0.12662   0.30374   0.57208   1.000
    O424    O    0.90396   0.35089   0.58112   1.000
    O425    O    0.93001   0.40084   0.59907   1.000
    O426    O    0.09603   0.35087   0.58114   1.000
    O427    O    0.06999   0.40084   0.59908   1.000
    O428    O    0.90394   0.64907   0.58115   1.000
    O429    O    0.93001   0.59913   0.59913   1.000
    O430    O    0.64907   0.90392   0.58115   1.000
    O431    O    0.59915   0.93001   0.59914   1.000
    O432    O    0.09604   0.64909   0.58116   1.000
    O433    O    0.06999   0.59915   0.59913   1.000
    O434    O    0.64912   0.09603   0.58114   1.000
    O435    O    0.59919   0.06995   0.59914   1.000
    O436    O    0.35097   0.09608   0.58110   1.000
    O437    O    0.40090   0.07000   0.59915   1.000
    O438    O    0.35096   0.90395   0.58116   1.000
    O439    O    0.40086   0.93006   0.59919   1.000
    O440    O    0.33726   0.13996   0.62075   1.000
    O441    O    0.66282   0.13991   0.62079   1.000
    O442    O    0.86008   0.33719   0.62078   1.000
    O443    O    0.66276   0.86004   0.62080   1.000
    O444    O    0.33724   0.86008   0.62083   1.000
    O445    O    0.86006   0.66278   0.62081   1.000
    O446    O    0.13991   0.33718   0.62080   1.000
    O447    O    0.13993   0.66279   0.62082   1.000
    O448    O    0.76024   0.23977   0.63256   1.000
    O449    O    0.23979   0.23978   0.63257   1.000
    O450    O    0.76020   0.76020   0.63257   1.000
    O451    O    0.23977   0.76025   0.63259   1.000
    O452    O    0.96501   0.46340   0.62462   1.000
    O453    O    0.03501   0.46340   0.62462   1.000
    O454    O    0.96501   0.53658   0.62466   1.000
    O455    O    0.03500   0.53659   0.62466   1.000
    O456    O    0.53663   0.03499   0.62472   1.000
    O457    O    0.53661   0.96502   0.62472   1.000
    O458    O    0.46343   0.03501   0.62473   1.000
    O459    O    0.46340   0.96505   0.62476   1.000
    O460    O    0.90394   0.41885   0.64899   1.000
    O461    O    0.09607   0.41885   0.64899   1.000
    O462    O    0.90394   0.58114   0.64905   1.000
    O463    O    0.09607   0.58115   0.64905   1.000
    O464    O    0.58119   0.09601   0.64907   1.000
    O465    O    0.58115   0.90396   0.64908   1.000
    O466    O    0.41887   0.09605   0.64910   1.000
    O467    O    0.41881   0.90404   0.64916   1.000
    O468    O    0.86007   0.37919   0.66273   1.000
    O469    O    0.81115   0.33033   0.66924   1.000
    O470    O    0.62085   0.13989   0.66277   1.000
    O471    O    0.66969   0.18883   0.66964   1.000
    O472    O    0.13993   0.37918   0.66273   1.000
    O473    O    0.18884   0.33031   0.66966   1.000
    O474    O    0.62080   0.86007   0.66278   1.000
    O475    O    0.66964   0.81113   0.66966   1.000
    O476    O    0.86006   0.62080   0.66277   1.000
    O477    O    0.81113   0.66965   0.66966   1.000
    O478    O    0.13994   0.62081   0.66277   1.000
    O479    O    0.18886   0.66968   0.66966   1.000
    O480    O    0.37921   0.13994   0.66279   1.000
    O481    O    0.33036   0.18887   0.66965   1.000
    O482    O    0.37916   0.86014   0.66285   1.000
    O483    O    0.33033   0.81118   0.66970   1.000
    O484    O    0.76433   0.28227   0.67142   1.000
    O485    O    0.71773   0.23566   0.67182   1.000
    O486    O    0.28229   0.23568   0.67183   1.000
    O487    O    0.23567   0.28227   0.67184   1.000
    O488    O    0.76430   0.71771   0.67184   1.000
    O489    O    0.71769   0.76431   0.67184   1.000
    O490    O    0.23568   0.71774   0.67185   1.000
    O491    O    0.28228   0.76435   0.67186   1.000
    O492    O    0.87330   0.42796   0.69610   1.000
    O493    O    0.12670   0.42797   0.69609   1.000
    O494    O    0.87331   0.57204   0.69615   1.000
    O495    O    0.12669   0.57205   0.69615   1.000
    O496    O    0.57210   0.12662   0.69618   1.000
    O497    O    0.57205   0.87336   0.69619   1.000
    O498    O    0.42794   0.12665   0.69619   1.000
    O499    O    0.42786   0.87347   0.69628   1.000
    O500    O    0.76432   0.32816   0.71729   1.000
    O501    O    0.32818   0.23569   0.71770   1.000
    O502    O    0.67184   0.23567   0.71769   1.000
    O503    O    0.76430   0.67183   0.71771   1.000
    O504    O    0.67180   0.76431   0.71771   1.000
    O505    O    0.23565   0.32815   0.71771   1.000
    O506    O    0.23569   0.67185   0.71771   1.000
    O507    O    0.32817   0.76435   0.71774   1.000
    O508    O    0.76020   0.36744   0.76016   1.000
    O509    O    0.71770   0.32817   0.76428   1.000
    O510    O    0.63255   0.23977   0.76018   1.000
    O511    O    0.67182   0.28228   0.76428   1.000
    O512    O    0.23980   0.63257   0.76019   1.000
    O513    O    0.28229   0.67186   0.76432   1.000
    O514    O    0.23974   0.36741   0.76021   1.000
    O515    O    0.28226   0.32815   0.76432   1.000
    O516    O    0.76020   0.63256   0.75980   1.000
    O517    O    0.71769   0.67183   0.76430   1.000
    O518    O    0.36746   0.23981   0.76021   1.000
    O519    O    0.32816   0.28229   0.76432   1.000
    O520    O    0.63252   0.76020   0.76021   1.000
    O521    O    0.67180   0.71771   0.76431   1.000
    O522    O    0.36745   0.76024   0.76022   1.000
    O523    O    0.32817   0.71774   0.76433   1.000
    O524    O    0.66964   0.33034   0.81109   1.000
    O525    O    0.66964   0.66965   0.81112   1.000
    O526    O    0.33034   0.66969   0.81115   1.000
    O527    O    0.33031   0.33034   0.81115   1.000
    O528    O    0.62077   0.33724   0.86001   1.000
    O529    O    0.66277   0.37918   0.86002   1.000
    O530    O    0.66277   0.62079   0.86005   1.000
    O531    O    0.62079   0.66275   0.86006   1.000
    O532    O    0.33719   0.37921   0.86006   1.000
    O533    O    0.37914   0.33721   0.86011   1.000
    O534    O    0.33722   0.62084   0.86006   1.000
    O535    O    0.37917   0.66283   0.86008   1.000
    O536    O    0.30382   0.42799   0.87326   1.000
    O537    O    0.57199   0.30386   0.87325   1.000
    O538    O    0.30383   0.57207   0.87328   1.000
    O539    O    0.69620   0.57205   0.87329   1.000
    O540    O    0.69620   0.42792   0.87329   1.000
    O541    O    0.57202   0.69615   0.87333   1.000
    O542    O    0.42790   0.69626   0.87339   1.000
    O543    O    0.42786   0.30376   0.87343   1.000
    O544    O    0.58112   0.35094   0.90389   1.000
    O545    O    0.64909   0.41882   0.90392   1.000
    O546    O    0.35091   0.41888   0.90392   1.000
    O547    O    0.35092   0.58118   0.90393   1.000
    O548    O    0.64909   0.58114   0.90394   1.000
    O549    O    0.58114   0.64905   0.90394   1.000
    O550    O    0.41882   0.64914   0.90398   1.000
    O551    O    0.41879   0.35090   0.90400   1.000
    O552    O    0.59914   0.40085   0.92998   1.000
    O553    O    0.53658   0.37529   0.96497   1.000
    O554    O    0.40082   0.40086   0.93003   1.000
    O555    O    0.37527   0.46343   0.96500   1.000
    O556    O    0.40084   0.59919   0.93003   1.000
    O557    O    0.37528   0.53662   0.96500   1.000
    O558    O    0.62474   0.46337   0.96499   1.000
    O559    O    0.59915   0.59912   0.93001   1.000
    O560    O    0.62474   0.53657   0.96499   1.000
    O561    O    0.53659   0.62470   0.96501   1.000
    O562    O    0.46339   0.62474   0.96503   1.000
    O563    O    0.46337   0.37528   0.96502   1.000
loop_
    _geom_bond_atom_site_label_1
    _geom_bond_atom_site_label_2
    _geom_bond_distance
    _geom_bond_site_symmetry_2
    _ccdc_geom_bond_type
    C250   O252      0.68203      .   S
    C214   O252      0.68203      .   S
    C250   O253      0.67456      .   S
    C130   O253      0.67456      .   S
    C250   O254      0.94068      .   S
    C11    O254      0.94068  1_556   S
    C214   O255      0.67455      .   S
    C94    O255      0.67455      .   S
    C214   O256      0.94081      .   S
    C4     O256      0.94081  1_556   S
    C224   O257      0.68204      .   S
    C239   O257      0.68204      .   S
    C224   O258      0.67400      .   S
    C104   O258      0.67400      .   S
    C224   O259      0.94069      .   S
    C10    O259      0.94069      .   S
    C239   O260      0.67457      .   S
    C119   O260      0.67457      .   S
    C239   O261      0.94087      .   S
    C4     O261      0.94087  1_556   S
    C236   O262      0.68205      .   S
    C227   O262      0.68205      .   S
    C236   O263      0.67460      .   S
    C116   O263      0.67460      .   S
    C236   O264      0.94094      .   S
    C5     O264      0.94094      .   S
    C227   O265      0.67453      .   S
    C107   O265      0.67453      .   S
    C227   O266      0.94071      .   S
    C11    O266      0.94071  1_556   S
    C249   O267      0.68204      .   S
    C213   O267      0.68204      .   S
    C249   O268      0.67396      .   S
    C129   O268      0.67396      .   S
    C249   O269      0.94073      .   S
    C10    O269      0.94073      .   S
    C213   O270      0.67463      .   S
    C93    O270      0.67463      .   S
    C213   O271      0.94092      .   S
    C5     O271      0.94092      .   S
    C129   O272      0.54081      .   S
    C57    O272      0.54081      .   S
    C129   O273      0.70239      .   S
    C151   O273      0.70239      .   S
    C104   O274      0.54079      .   S
    C32    O274      0.54079      .   S
    C104   O275      0.70234      .   S
    C173   O275      0.70234      .   S
    C130   O276      0.54067      .   S
    C58    O276      0.54067      .   S
    C130   O277      0.70203      .   S
    C153   O277      0.70203      .   S
    C119   O278      0.54067      .   S
    C47    O278      0.54067      .   S
    C119   O279      0.70204      .   S
    C173   O279      0.70204      .   S
    C94    O280      0.54067      .   S
    C22    O280      0.54067      .   S
    C94    O281      0.70203      .   S
    C153   O281      0.70203      .   S
    C116   O282      0.54068      .   S
    C44    O282      0.54068      .   S
    C116   O283      0.70201      .   S
    C179   O283      0.70201      .   S
    C107   O284      0.54067      .   S
    C35    O284      0.54067      .   S
    C107   O285      0.70196      .   S
    C179   O285      0.70196      .   S
    C93    O286      0.54067      .   S
    C21    O286      0.54067      .   S
    C93    O287      0.70199      .   S
    C151   O287      0.70199      .   S
    C153   O288      0.73314      .   S
    C152   O288      0.73314      .   S
    C179   O289      0.73320      .   S
    C178   O289      0.73320      .   S
    C173   O290      0.73312      .   S
    C172   O290      0.73312      .   S
    C151   O291      0.73322      .   S
    C150   O291      0.73322      .   S
    C178   O292      0.70167      .   S
    C203   O292      0.70167      .   S
    C178   O293      0.70165      .   S
    C198   O293      0.70165      .   S
    C172   O294      0.70146      .   S
    C200   O294      0.70146      .   S
    C172   O295      0.70163      .   S
    C196   O295      0.70163      .   S
    C152   O296      0.70163      .   S
    C190   O296      0.70163      .   S
    C152   O297      0.70168      .   S
    C185   O297      0.70168      .   S
    C150   O298      0.70163      .   S
    C187   O298      0.70163      .   S
    C150   O299      0.70162      .   S
    C189   O299      0.70162      .   S
    C65    O300      0.54489      .   S
    C185   O300      0.54489      .   S
    C70    O301      0.54475      .   S
    C190   O301      0.54475      .   S
    C83    O302      0.54459      .   S
    C203   O302      0.54459      .   S
    C80    O303      0.54435      .   S
    C200   O303      0.54435      .   S
    C67    O304      0.54456      .   S
    C187   O304      0.54456      .   S
    C76    O305      0.54455      .   S
    C196   O305      0.54455      .   S
    C78    O306      0.54456      .   S
    C198   O306      0.54456      .   S
    C69    O307      0.54454      .   S
    C189   O307      0.54454      .   S
    C200   O308      0.70206      .   S
    C156   O308      0.70206      .   S
    C203   O309      0.70165      .   S
    C158   O309      0.70165      .   S
    C190   O310      0.70165      .   S
    C138   O310      0.70165      .   S
    C185   O311      0.70162      .   S
    C142   O311      0.70162      .   S
    C198   O312      0.70111      .   S
    C168   O312      0.70111      .   S
    C187   O313      0.70166      .   S
    C146   O313      0.70166      .   S
    C196   O314      0.70167      .   S
    C164   O314      0.70167      .   S
    C189   O315      0.70164      .   S
    C136   O315      0.70164      .   S
    C40    O316      0.54066      .   S
    C112   O316      0.54066      .   S
    C42    O317      0.54065      .   S
    C114   O317      0.54065      .   S
    C17    O318      0.54072      .   S
    C89    O318      0.54072      .   S
    C19    O319      0.54069      .   S
    C91    O319      0.54069      .   S
    C53    O320      0.54066      .   S
    C125   O320      0.54066      .   S
    C30    O321      0.54068      .   S
    C102   O321      0.54068      .   S
    C55    O322      0.54067      .   S
    C127   O322      0.54067      .   S
    C28    O323      0.54064      .   S
    C100   O323      0.54064      .   S
    C168   O324      0.70187      .   S
    C193   O324      0.70187      .   S
    C168   O325      0.73340      .   S
    C169   O325      0.73340      .   S
    C158   O326      0.70165      .   S
    C193   O326      0.70165      .   S
    C158   O327      0.73320      .   S
    C159   O327      0.73320      .   S
    C156   O328      0.70164      .   S
    C192   O328      0.70164      .   S
    C156   O329      0.73316      .   S
    C157   O329      0.73316      .   S
    C138   O330      0.70160      .   S
    C183   O330      0.70160      .   S
    C138   O331      0.73286      .   S
    C139   O331      0.73286      .   S
    C146   O332      0.70164      .   S
    C182   O332      0.70164      .   S
    C146   O333      0.73283      .   S
    C147   O333      0.73283      .   S
    C142   O334      0.70163      .   S
    C183   O334      0.70163      .   S
    C142   O335      0.73317      .   S
    C143   O335      0.73317      .   S
    C164   O336      0.70161      .   S
    C192   O336      0.70161      .   S
    C164   O337      0.73314      .   S
    C165   O337      0.73314      .   S
    C136   O338      0.70163      .   S
    C182   O338      0.70163      .   S
    C136   O339      0.73316      .   S
    C137   O339      0.73316      .   S
    C112   O340      0.70201      .   S
    C159   O340      0.70201      .   S
    C112   O341      0.67455      .   S
    C232   O341      0.67455      .   S
    C114   O342      0.70200      .   S
    C157   O342      0.70200      .   S
    C114   O343      0.67453      .   S
    C234   O343      0.67453      .   S
    C89    O344      0.70198      .   S
    C143   O344      0.70198      .   S
    C89    O345      0.67453      .   S
    C209   O345      0.67453      .   S
    C91    O346      0.70179      .   S
    C147   O346      0.70179      .   S
    C91    O347      0.67450      .   S
    C211   O347      0.67450      .   S
    C125   O348      0.70183      .   S
    C139   O348      0.70183      .   S
    C125   O349      0.67458      .   S
    C245   O349      0.67458      .   S
    C102   O350      0.70200      .   S
    C169   O350      0.70200      .   S
    C102   O351      0.67455      .   S
    C222   O351      0.67455      .   S
    C127   O352      0.70200      .   S
    C137   O352      0.70200      .   S
    C127   O353      0.67458      .   S
    C247   O353      0.67458      .   S
    C100   O354      0.70198      .   S
    C165   O354      0.70198      .   S
    C100   O355      0.67459      .   S
    C220   O355      0.67459      .   S
    C193   O356      0.54457      .   S
    C73    O356      0.54457      .   S
    C192   O357      0.54453      .   S
    C72    O357      0.54453      .   S
    C183   O358      0.54454      .   S
    C63    O358      0.54454      .   S
    C182   O359      0.54455      .   S
    C62    O359      0.54455      .   S
    C147   O360      0.70269      .   S
    C122   O360      0.70269      .   S
    C139   O361      0.70249      .   S
    C87    O361      0.70249      .   S
    C159   O362      0.70200      .   S
    C97    O362      0.70200      .   S
    C157   O363      0.70144      .   S
    C96    O363      0.70144      .   S
    C143   O364      0.70201      .   S
    C123   O364      0.70201      .   S
    C169   O365      0.70199      .   S
    C108   O365      0.70199      .   S
    C137   O366      0.70200      .   S
    C86    O366      0.70200      .   S
    C165   O367      0.70197      .   S
    C109   O367      0.70197      .   S
    C209   O368      0.94054      .   S
    C3     O368      0.94054  1_565   S
    C209   O369      0.68203      .   S
    C243   O369      0.68203      .   S
    C234   O370      0.94061      .   S
    C3     O370      0.94061      .   S
    C234   O371      0.68206      .   S
    C216   O371      0.68206      .   S
    C232   O372      0.94066      .   S
    C3     O372      0.94066  1_565   S
    C232   O373      0.68204      .   S
    C217   O373      0.68204      .   S
    C211   O374      0.94064      .   S
    C3     O374      0.94064      .   S
    C211   O375      0.68208      .   S
    C242   O375      0.68208      .   S
    C245   O376      0.94084      .   S
    C8     O376      0.94084  1_455   S
    C245   O377      0.68197      .   S
    C207   O377      0.68197      .   S
    C222   O378      0.94074      .   S
    C8     O378      0.94074      .   S
    C222   O379      0.68204      .   S
    C228   O379      0.68204      .   S
    C247   O380      0.94080      .   S
    C8     O380      0.94080      .   S
    C247   O381      0.68203      .   S
    C206   O381      0.68203      .   S
    C220   O382      0.94090      .   S
    C8     O382      0.94090  1_455   S
    C220   O383      0.68200      .   S
    C229   O383      0.68200      .   S
    C96    O384      0.67476      .   S
    C216   O384      0.67476      .   S
    C96    O385      0.54082      .   S
    C24    O385      0.54082      .   S
    C87    O386      0.67456      .   S
    C207   O386      0.67456      .   S
    C87    O387      0.54066      .   S
    C15    O387      0.54066      .   S
    C108   O388      0.67456      .   S
    C228   O388      0.67456      .   S
    C108   O389      0.54032      .   S
    C36    O389      0.54032      .   S
    C97    O390      0.67460      .   S
    C217   O390      0.67460      .   S
    C97    O391      0.54067      .   S
    C25    O391      0.54067      .   S
    C109   O392      0.67456      .   S
    C229   O392      0.67456      .   S
    C109   O393      0.54070      .   S
    C37    O393      0.54070      .   S
    C86    O394      0.67456      .   S
    C206   O394      0.67456      .   S
    C86    O395      0.54067      .   S
    C14    O395      0.54067      .   S
    C123   O396      0.67461      .   S
    C243   O396      0.67461      .   S
    C123   O397      0.54070      .   S
    C51    O397      0.54070      .   S
    C122   O398      0.67461      .   S
    C242   O398      0.67461      .   S
    C122   O399      0.54069      .   S
    C50    O399      0.54069      .   S
    C243   O400      0.94101      .   S
    C6     O400      0.94101  1_565   S
    C217   O401      0.94097      .   S
    C7     O401      0.94097      .   S
    C207   O402      0.94076      .   S
    C1     O402      0.94076  1_455   S
    C216   O403      0.94105      .   S
    C6     O403      0.94105      .   S
    C242   O404      0.94102      .   S
    C7     O404      0.94102  1_545   S
    C228   O405      0.94063      .   S
    C1     O405      0.94063      .   S
    C229   O406      0.94076      .   S
    C0     O406      0.94076  1_455   S
    C206   O407      0.94066      .   S
    C0     O407      0.94066      .   S
    C6     O408      0.94099      .   S
    C241   O408      0.94099      .   S
    C6     O409      0.94100  1_565   S
    C218   O409      0.94100      .   S
    C1     O410      0.94071  1_455   S
    C230   O410      0.94071      .   S
    C1     O411      0.94060      .   S
    C205   O411      0.94060      .   S
    C7     O412      0.94105      .   S
    C240   O412      0.94105      .   S
    C7     O413      0.94111  1_545   S
    C219   O413      0.94111      .   S
    C0     O414      0.94073  1_455   S
    C204   O414      0.94073      .   S
    C0     O415      0.94063      .   S
    C231   O415      0.94063      .   S
    C27    O416      0.54069      .   S
    C99    O416      0.54069      .   S
    C48    O417      0.54014      .   S
    C120   O417      0.54014      .   S
    C49    O418      0.54068      .   S
    C121   O418      0.54068      .   S
    C26    O419      0.54066      .   S
    C98    O419      0.54066      .   S
    C12    O420      0.54070      .   S
    C84    O420      0.54070      .   S
    C39    O421      0.54071      .   S
    C111   O421      0.54071      .   S
    C38    O422      0.54066      .   S
    C110   O422      0.54066      .   S
    C13    O423      0.54067      .   S
    C85    O423      0.54067      .   S
    C230   O424      0.67455      .   S
    C110   O424      0.67455      .   S
    C230   O425      0.68201      .   S
    C223   O425      0.68201      .   S
    C205   O426      0.67455      .   S
    C85    O426      0.67455      .   S
    C205   O427      0.68203      .   S
    C244   O427      0.68203      .   S
    C204   O428      0.67455      .   S
    C84    O428      0.67455      .   S
    C204   O429      0.68203      .   S
    C246   O429      0.68203      .   S
    C241   O430      0.67460      .   S
    C121   O430      0.67460      .   S
    C241   O431      0.68207      .   S
    C208   O431      0.68207      .   S
    C231   O432      0.67456      .   S
    C111   O432      0.67456      .   S
    C231   O433      0.68200      .   S
    C221   O433      0.68200      .   S
    C218   O434      0.67460      .   S
    C98    O434      0.67460      .   S
    C218   O435      0.68202      .   S
    C235   O435      0.68202      .   S
    C240   O436      0.67442      .   S
    C120   O436      0.67442      .   S
    C240   O437      0.68202      .   S
    C210   O437      0.68202      .   S
    C219   O438      0.67460      .   S
    C99    O438      0.67460      .   S
    C219   O439      0.68203      .   S
    C233   O439      0.68203      .   S
    C120   O440      0.70276      .   S
    C145   O440      0.70276      .   S
    C98    O441      0.70201      .   S
    C161   O441      0.70201      .   S
    C110   O442      0.70197      .   S
    C171   O442      0.70197      .   S
    C121   O443      0.70197      .   S
    C141   O443      0.70197      .   S
    C99    O444      0.70198      .   S
    C163   O444      0.70198      .   S
    C84    O445      0.70198      .   S
    C133   O445      0.70198      .   S
    C85    O446      0.70203      .   S
    C135   O446      0.70203      .   S
    C111   O447      0.70198      .   S
    C167   O447      0.70198      .   S
    C74    O448      0.54457      .   S
    C194   O448      0.54457      .   S
    C61    O449      0.54455      .   S
    C181   O449      0.54455      .   S
    C60    O450      0.54452      .   S
    C180   O450      0.54452      .   S
    C75    O451      0.54453      .   S
    C195   O451      0.54453      .   S
    C9     O452      0.94086  1_455   S
    C223   O452      0.94086      .   S
    C9     O453      0.94077      .   S
    C244   O453      0.94077      .   S
    C9     O454      0.94089  1_455   S
    C246   O454      0.94089      .   S
    C9     O455      0.94080      .   S
    C221   O455      0.94080      .   S
    C2     O456      0.94055      .   S
    C235   O456      0.94055      .   S
    C2     O457      0.94073  1_545   S
    C208   O457      0.94073      .   S
    C2     O458      0.94063      .   S
    C210   O458      0.94063      .   S
    C2     O459      0.94072  1_545   S
    C233   O459      0.94072      .   S
    C223   O460      0.67459      .   S
    C103   O460      0.67459      .   S
    C244   O461      0.67452      .   S
    C124   O461      0.67452      .   S
    C246   O462      0.67454      .   S
    C126   O462      0.67454      .   S
    C221   O463      0.67461      .   S
    C101   O463      0.67461      .   S
    C235   O464      0.67453      .   S
    C115   O464      0.67453      .   S
    C208   O465      0.67453      .   S
    C88    O465      0.67453      .   S
    C210   O466      0.67456      .   S
    C90    O466      0.67456      .   S
    C233   O467      0.67455      .   S
    C113   O467      0.67455      .   S
    C171   O468      0.70200      .   S
    C103   O468      0.70200      .   S
    C171   O469      0.72997      .   S
    C170   O469      0.72997      .   S
    C161   O470      0.70198      .   S
    C115   O470      0.70198      .   S
    C161   O471      0.73316      .   S
    C160   O471      0.73316      .   S
    C135   O472      0.70198      .   S
    C124   O472      0.70198      .   S
    C135   O473      0.73314      .   S
    C134   O473      0.73314      .   S
    C141   O474      0.70200      .   S
    C88    O474      0.70200      .   S
    C141   O475      0.73318      .   S
    C140   O475      0.73318      .   S
    C133   O476      0.70200      .   S
    C126   O476      0.70200      .   S
    C133   O477      0.73316      .   S
    C132   O477      0.73316      .   S
    C167   O478      0.70201      .   S
    C101   O478      0.70201      .   S
    C167   O479      0.73315      .   S
    C166   O479      0.73315      .   S
    C145   O480      0.70200      .   S
    C90    O480      0.70200      .   S
    C145   O481      0.73309      .   S
    C144   O481      0.73309      .   S
    C163   O482      0.70203      .   S
    C113   O482      0.70203      .   S
    C163   O483      0.73321      .   S
    C162   O483      0.73321      .   S
    C194   O484      0.69871      .   S
    C170   O484      0.69871      .   S
    C194   O485      0.70160      .   S
    C160   O485      0.70160      .   S
    C181   O486      0.70154      .   S
    C144   O486      0.70154      .   S
    C181   O487      0.70162      .   S
    C134   O487      0.70162      .   S
    C180   O488      0.70164      .   S
    C132   O488      0.70164      .   S
    C180   O489      0.70163      .   S
    C140   O489      0.70163      .   S
    C195   O490      0.70163      .   S
    C166   O490      0.70163      .   S
    C195   O491      0.70166      .   S
    C162   O491      0.70166      .   S
    C103   O492      0.54066      .   S
    C31    O492      0.54066      .   S
    C124   O493      0.54068      .   S
    C52    O493      0.54068      .   S
    C126   O494      0.54068      .   S
    C54    O494      0.54068      .   S
    C101   O495      0.54066      .   S
    C29    O495      0.54066      .   S
    C115   O496      0.54072      .   S
    C43    O496      0.54072      .   S
    C88    O497      0.54068      .   S
    C16    O497      0.54068      .   S
    C90    O498      0.54020      .   S
    C18    O498      0.54020      .   S
    C113   O499      0.54012      .   S
    C41    O499      0.54012      .   S
    C170   O500      0.70769      .   S
    C199   O500      0.70769      .   S
    C144   O501      0.70174      .   S
    C186   O501      0.70174      .   S
    C160   O502      0.70169      .   S
    C201   O502      0.70169      .   S
    C132   O503      0.70158      .   S
    C188   O503      0.70158      .   S
    C140   O504      0.70167      .   S
    C184   O504      0.70167      .   S
    C134   O505      0.70153      .   S
    C191   O505      0.70153      .   S
    C166   O506      0.70162      .   S
    C197   O506      0.70162      .   S
    C162   O507      0.70165      .   S
    C202   O507      0.70165      .   S
    C199   O508      0.54454      .   S
    C79    O508      0.54454      .   S
    C199   O509      0.70164      .   S
    C174   O509      0.70164      .   S
    C201   O510      0.54457      .   S
    C81    O510      0.54457      .   S
    C201   O511      0.70167      .   S
    C174   O511      0.70167      .   S
    C197   O512      0.54456      .   S
    C77    O512      0.54456      .   S
    C197   O513      0.70164      .   S
    C176   O513      0.70164      .   S
    C191   O514      0.54461      .   S
    C71    O514      0.54461      .   S
    C191   O515      0.70168      .   S
    C154   O515      0.70168      .   S
    C188   O516      0.54169      .   S
    C68    O516      0.54169      .   S
    C188   O517      0.70158      .   S
    C148   O517      0.70158      .   S
    C186   O518      0.54463      .   S
    C66    O518      0.54463      .   S
    C186   O519      0.70171      .   S
    C154   O519      0.70171      .   S
    C184   O520      0.54456      .   S
    C64    O520      0.54456      .   S
    C184   O521      0.70161      .   S
    C148   O521      0.70161      .   S
    C202   O522      0.54447      .   S
    C82    O522      0.54447      .   S
    C202   O523      0.70165      .   S
    C176   O523      0.70165      .   S
    C174   O524      0.73317      .   S
    C175   O524      0.73317      .   S
    C148   O525      0.73328      .   S
    C149   O525      0.73328      .   S
    C176   O526      0.73318      .   S
    C177   O526      0.73318      .   S
    C154   O527      0.73324      .   S
    C155   O527      0.73324      .   S
    C175   O528      0.70200      .   S
    C105   O528      0.70200      .   S
    C175   O529      0.70201      .   S
    C117   O529      0.70201      .   S
    C149   O530      0.70203      .   S
    C92    O530      0.70203      .   S
    C149   O531      0.70201      .   S
    C131   O531      0.70201      .   S
    C155   O532      0.70201      .   S
    C95    O532      0.70201      .   S
    C155   O533      0.70199      .   S
    C128   O533      0.70199      .   S
    C177   O534      0.70199      .   S
    C118   O534      0.70199      .   S
    C177   O535      0.70185      .   S
    C106   O535      0.70185      .   S
    C23    O536      0.54068      .   S
    C95    O536      0.54068      .   S
    C33    O537      0.54067      .   S
    C105   O537      0.54067      .   S
    C46    O538      0.54068      .   S
    C118   O538      0.54068      .   S
    C20    O539      0.54068      .   S
    C92    O539      0.54068      .   S
    C45    O540      0.54068      .   S
    C117   O540      0.54068      .   S
    C59    O541      0.54068      .   S
    C131   O541      0.54068      .   S
    C34    O542      0.54062      .   S
    C106   O542      0.54062      .   S
    C56    O543      0.54068      .   S
    C128   O543      0.54068      .   S
    C105   O544      0.67450      .   S
    C225   O544      0.67450      .   S
    C117   O545      0.67458      .   S
    C237   O545      0.67458      .   S
    C95    O546      0.67459      .   S
    C215   O546      0.67459      .   S
    C118   O547      0.67444      .   S
    C238   O547      0.67444      .   S
    C92    O548      0.67453      .   S
    C212   O548      0.67453      .   S
    C131   O549      0.67453      .   S
    C251   O549      0.67453      .   S
    C106   O550      0.67476      .   S
    C226   O550      0.67476      .   S
    C128   O551      0.67455      .   S
    C248   O551      0.67455      .   S
    C225   O552      0.68204      .   S
    C237   O552      0.68204      .   S
    C225   O553      0.94085      .   S
    C11    O553      0.94085      .   S
    C215   O554      0.68204      .   S
    C248   O554      0.68204      .   S
    C215   O555      0.94092      .   S
    C5     O555      0.94092  1_554   S
    C238   O556      0.68203      .   S
    C226   O556      0.68203      .   S
    C238   O557      0.94118      .   S
    C5     O557      0.94118  1_554   S
    C237   O558      0.94082      .   S
    C4     O558      0.94082      .   S
    C212   O559      0.68204      .   S
    C251   O559      0.68204      .   S
    C212   O560      0.94104      .   S
    C4     O560      0.94104      .   S
    C251   O561      0.94073      .   S
    C10    O561      0.94073  1_554   S
    C226   O562      0.94073      .   S
    C10    O562      0.94073  1_554   S
    C248   O563      0.94072      .   S
    C11    O563      0.94072      .   S
