# CIF file generated by openbabel 2.4.90, see http://openbabel.sf.net
data_I
_chemical_name_common ''
_cell_length_a 20.75
_cell_length_b 25.128
_cell_length_c 20.218
_cell_angle_alpha 90.024
_cell_angle_beta 89.988
_cell_angle_gamma 90.036
_space_group_name_H-M_alt 'P 1'
_space_group_name_Hall 'P 1'
loop_
    _symmetry_equiv_pos_as_xyz
    x,y,z
loop_
    _atom_site_label
    _atom_site_type_symbol
    _atom_site_fract_x
    _atom_site_fract_y
    _atom_site_fract_z
    _atom_site_occupancy
    Zn0     Zn   0.46628   0.80344   0.01119   1.000
    Zn1     Zn   0.96629   0.30343   0.01119   1.000
    Zn2     Zn   0.96628   0.80344   0.01119   1.000
    Zn3     Zn   0.31415   0.33825   0.01123   1.000
    Zn4     Zn   0.31414   0.83826   0.01123   1.000
    Zn5     Zn   0.81415   0.33825   0.01123   1.000
    Zn6     Zn   0.81414   0.83826   0.01123   1.000
    Zn7     Zn   0.28372   0.19656   0.51119   1.000
    Zn8     Zn   0.28372   0.69657   0.51119   1.000
    Zn9     Zn   0.78372   0.19656   0.51119   1.000
    Zn10    Zn   0.78372   0.69657   0.51119   1.000
    Zn11    Zn   0.43584   0.16184   0.51111   1.000
    Zn12    Zn   0.43583   0.66185   0.51111   1.000
    Zn13    Zn   0.93584   0.16184   0.51111   1.000
    Zn14    Zn   0.93583   0.66185   0.51111   1.000
    Zn15    Zn   0.03365   0.05346   0.48881   1.000
    Zn16    Zn   0.03365   0.55346   0.48881   1.000
    Zn17    Zn   0.53365   0.05346   0.48881   1.000
    Zn18    Zn   0.53365   0.55346   0.48881   1.000
    Zn19    Zn   0.18581   0.08816   0.48800   1.000
    Zn20    Zn   0.18581   0.58817   0.48890   1.000
    Zn21    Zn   0.68581   0.08816   0.48800   1.000
    Zn22    Zn   0.68581   0.58817   0.48890   1.000
    Zn23    Zn   0.21635   0.44654   0.98889   1.000
    Zn24    Zn   0.21634   0.94656   0.98888   1.000
    Zn25    Zn   0.71635   0.44654   0.98889   1.000
    Zn26    Zn   0.71634   0.94656   0.98888   1.000
    Zn27    Zn   0.06417   0.41181   0.98887   1.000
    Zn28    Zn   0.06416   0.91182   0.98887   1.000
    Zn29    Zn   0.56417   0.41181   0.98887   1.000
    Zn30    Zn   0.56416   0.91182   0.98887   1.000
    H31     H    0.47530   0.23484   0.82313   1.000
    Zn32    Zn   0.46629   0.30343   0.01119   1.000
    H33     H    0.47530   0.73487   0.82310   1.000
    H34     H    0.97530   0.23484   0.82313   1.000
    H35     H    0.97530   0.73487   0.82310   1.000
    H36     H    0.27995   0.29104   0.81866   1.000
    H37     H    0.28001   0.79119   0.81860   1.000
    H38     H    0.77996   0.29105   0.81860   1.000
    H39     H    0.78001   0.79119   0.81860   1.000
    H40     H    0.46753   0.21030   0.70296   1.000
    H41     H    0.46753   0.71032   0.70294   1.000
    H42     H    0.96753   0.21030   0.70296   1.000
    H43     H    0.96753   0.71032   0.70294   1.000
    H44     H    0.27232   0.26683   0.69859   1.000
    H45     H    0.27238   0.76699   0.69853   1.000
    H46     H    0.77232   0.26684   0.69858   1.000
    H47     H    0.77238   0.76699   0.69853   1.000
    H48     H    0.35960   0.48548   0.00000   1.000
    H49     H    0.35959   0.98549   0.00000   1.000
    H50     H    0.85960   0.48548   0.00000   1.000
    H51     H    0.85959   0.98549   0.00000   1.000
    H52     H    0.31088   0.48098   0.88732   1.000
    H53     H    0.31088   0.98097   0.88730   1.000
    H54     H    0.81089   0.48098   0.88732   1.000
    H55     H    0.81088   0.98097   0.88730   1.000
    H56     H    0.39693   0.47985   0.88330   1.000
    H57     H    0.39692   0.97983   0.88330   1.000
    H58     H    0.89693   0.47985   0.88336   1.000
    H59     H    0.89692   0.97983   0.88332   1.000
    H60     H    0.35164   0.41983   0.87230   1.000
    H61     H    0.35163   0.91981   0.87229   1.000
    H62     H    0.85164   0.41983   0.87230   1.000
    H63     H    0.85163   0.91981   0.87229   1.000
    H64     H    0.27460   0.26512   0.32314   1.000
    H65     H    0.27462   0.76516   0.32315   1.000
    H66     H    0.77460   0.26512   0.32314   1.000
    H67     H    0.77462   0.76516   0.32315   1.000
    H68     H    0.47009   0.20925   0.31867   1.000
    H69     H    0.47007   0.70922   0.31865   1.000
    H70     H    0.97009   0.20925   0.31867   1.000
    H71     H    0.97007   0.70922   0.31865   1.000
    H72     H    0.28239   0.28966   0.20299   1.000
    H73     H    0.28240   0.78971   0.20300   1.000
    H74     H    0.78239   0.28966   0.20299   1.000
    H75     H    0.78240   0.78971   0.20300   1.000
    H76     H    0.47774   0.23346   0.19862   1.000
    H77     H    0.47772   0.73342   0.19860   1.000
    H78     H    0.97774   0.23346   0.19862   1.000
    H79     H    0.97772   0.73342   0.19860   1.000
    H80     H    0.39077   0.01480   0.50002   1.000
    H81     H    0.39076   0.51481   0.50003   1.000
    H82     H    0.89077   0.01480   0.50002   1.000
    H83     H    0.89076   0.51481   0.50003   1.000
    H84     H    0.43856   0.01901   0.38616   1.000
    H85     H    0.43855   0.51900   0.38617   1.000
    H86     H    0.93856   0.01901   0.38616   1.000
    H87     H    0.93855   0.51900   0.38617   1.000
    H88     H    0.35246   0.01980   0.38290   1.000
    H89     H    0.35245   0.51979   0.38292   1.000
    H90     H    0.85246   0.01980   0.38290   1.000
    H91     H    0.85245   0.51979   0.38292   1.000
    H92     H    0.39735   0.07994   0.37112   1.000
    H93     H    0.39733   0.57993   0.37112   1.000
    H94     H    0.89735   0.07994   0.37112   1.000
    H95     H    0.89733   0.57993   0.37112   1.000
    H96     H    0.02439   0.48480   0.67707   1.000
    H97     H    0.02428   0.98509   0.67718   1.000
    H98     H    0.52439   0.48480   0.67707   1.000
    H99     H    0.52428   0.98509   0.67718   1.000
    C100    C    0.85677   0.94719   0.97400   1.000
    C101    C    0.35407   0.45773   0.89936   1.000
    C102    C    0.35405   0.95771   0.89930   1.000
    C103    C    0.85406   0.45773   0.89930   1.000
    H104    H    0.22001   0.04059   0.68108   1.000
    H105    H    0.21993   0.54075   0.68110   1.000
    H106    H    0.72001   0.04059   0.68108   1.000
    H107    H    0.71993   0.54074   0.68113   1.000
    H108    H    0.03240   0.46015   0.79710   1.000
    H109    H    0.03229   0.96045   0.79728   1.000
    H110    H    0.53240   0.46015   0.79710   1.000
    H111    H    0.53229   0.96045   0.79728   1.000
    H112    H    0.22790   0.01628   0.80100   1.000
    H113    H    0.22783   0.51640   0.80112   1.000
    H114    H    0.72790   0.01628   0.80100   1.000
    H115    H    0.72783   0.51640   0.80112   1.000
    H116    H    0.14093   0.23521   0.50001   1.000
    H117    H    0.14093   0.73521   0.49993   1.000
    H118    H    0.64093   0.23521   0.50001   1.000
    H119    H    0.64093   0.73521   0.49993   1.000
    H120    H    0.18883   0.23086   0.61383   1.000
    H121    H    0.18882   0.73095   0.61376   1.000
    H122    H    0.68883   0.23086   0.61383   1.000
    H123    H    0.68882   0.73095   0.61376   1.000
    H124    H    0.10273   0.23027   0.61715   1.000
    H125    H    0.10272   0.73036   0.61707   1.000
    H126    H    0.60273   0.23027   0.61715   1.000
    H127    H    0.60272   0.73036   0.61707   1.000
    H128    H    0.14734   0.17003   0.62887   1.000
    H129    H    0.14732   0.67013   0.62887   1.000
    H130    H    0.64734   0.17003   0.62887   1.000
    H131    H    0.64732   0.67013   0.62887   1.000
    C132    C    0.06871   0.49144   0.70468   1.000
    C133    C    0.06864   0.99164   0.70476   1.000
    C134    C    0.56871   0.49144   0.70468   1.000
    C135    C    0.56864   0.99164   0.70476   1.000
    C136    C    0.17923   0.02303   0.70703   1.000
    H137    H    0.22540   0.01515   0.17695   1.000
    H138    H    0.22535   0.51525   0.17691   1.000
    H139    H    0.72540   0.01515   0.17695   1.000
    H140    H    0.72535   0.51525   0.17691   1.000
    H141    H    0.02986   0.45919   0.18126   1.000
    H142    H    0.02983   0.95927   0.18124   1.000
    H143    H    0.52986   0.45919   0.18126   1.000
    H144    H    0.52983   0.95927   0.18124   1.000
    H145    H    0.21757   0.03968   0.29713   1.000
    H146    H    0.21753   0.53977   0.29709   1.000
    H147    H    0.71757   0.03968   0.29713   1.000
    H148    H    0.71753   0.53978   0.29709   1.000
    H149    H    0.02217   0.48338   0.30135   1.000
    H150    H    0.02213   0.98346   0.30132   1.000
    H151    H    0.52217   0.48338   0.30135   1.000
    H152    H    0.52213   0.98346   0.30132   1.000
    H153    H    0.10914   0.26477   0.99985   1.000
    H154    H    0.10913   0.76477   0.00000   1.000
    H155    H    0.60914   0.26477   0.99985   1.000
    H156    H    0.60913   0.76477   0.00000   1.000
    H157    H    0.06105   0.26911   0.11360   1.000
    H158    H    0.06104   0.76928   0.11374   1.000
    H159    H    0.56105   0.26911   0.11360   1.000
    H160    H    0.56104   0.76928   0.11374   1.000
    H161    H    0.14714   0.26976   0.11705   1.000
    H162    H    0.14713   0.76993   0.11720   1.000
    H163    H    0.64714   0.26976   0.11705   1.000
    H164    H    0.64713   0.76993   0.11720   1.000
    H165    H    0.10246   0.32998   0.12874   1.000
    H166    H    0.10245   0.83017   0.12875   1.000
    H167    H    0.60245   0.32998   0.12874   1.000
    H168    H    0.60245   0.83017   0.12875   1.000
    C169    C    0.38271   0.27993   0.89918   1.000
    C170    C    0.38272   0.77997   0.89910   1.000
    C171    C    0.88271   0.27994   0.89918   1.000
    C172    C    0.88272   0.77997   0.89910   1.000
    C173    C    0.37800   0.26422   0.82790   1.000
    C174    C    0.37802   0.76430   0.82787   1.000
    C175    C    0.87800   0.26423   0.82790   1.000
    C176    C    0.87802   0.76430   0.82787   1.000
    C177    C    0.43108   0.24155   0.79540   1.000
    C178    C    0.43109   0.74161   0.79538   1.000
    C179    C    0.93108   0.24156   0.79540   1.000
    C180    C    0.93109   0.74161   0.79538   1.000
    C181    C    0.32071   0.27335   0.79283   1.000
    C182    C    0.32075   0.77348   0.79278   1.000
    C183    C    0.82071   0.27336   0.79283   1.000
    C184    C    0.82075   0.77348   0.79278   1.000
    C185    C    0.42685   0.22808   0.72882   1.000
    C186    C    0.42686   0.72814   0.72880   1.000
    C187    C    0.92685   0.22808   0.72882   1.000
    C188    C    0.92686   0.72814   0.72880   1.000
    C189    C    0.31654   0.25995   0.72622   1.000
    C190    C    0.31659   0.76008   0.72617   1.000
    C191    C    0.81655   0.25996   0.72622   1.000
    C192    C    0.81659   0.76008   0.72617   1.000
    C193    C    0.36954   0.23715   0.69375   1.000
    C194    C    0.36957   0.73724   0.69370   1.000
    C195    C    0.86954   0.23716   0.69375   1.000
    C196    C    0.86957   0.73724   0.69370   1.000
    C197    C    0.36485   0.22110   0.62258   1.000
    C198    C    0.36486   0.72114   0.62256   1.000
    C199    C    0.86485   0.22110   0.62258   1.000
    C200    C    0.86486   0.72114   0.62256   1.000
    C201    C    0.41906   0.41736   0.99010   1.000
    C202    C    0.41905   0.91737   0.99000   1.000
    C203    C    0.91906   0.41736   0.99010   1.000
    C204    C    0.91905   0.91737   0.99009   1.000
    C205    C    0.35678   0.44718   0.97401   1.000
    C206    C    0.35677   0.94719   0.97400   1.000
    C207    C    0.85678   0.44718   0.97401   1.000
    O208    O    0.06285   0.52127   0.57221   1.000
    O209    O    0.56284   0.02129   0.57223   1.000
    O210    O    0.56285   0.52127   0.57221   1.000
    O211    O    0.18914   0.48051   0.90637   1.000
    O212    O    0.18910   0.98066   0.90640   1.000
    O213    O    0.68915   0.48051   0.90637   1.000
    O214    O    0.68910   0.98066   0.90640   1.000
    O215    O    0.08625   0.44879   0.90290   1.000
    C216    C    0.85405   0.95771   0.89934   1.000
    C217    C    0.36723   0.22014   0.39916   1.000
    C218    C    0.36723   0.72015   0.39916   1.000
    C219    C    0.86723   0.22014   0.39916   1.000
    C220    C    0.86723   0.72015   0.39916   1.000
    C221    C    0.37196   0.23589   0.32791   1.000
    C222    C    0.37196   0.73589   0.32791   1.000
    C223    C    0.87196   0.23589   0.32791   1.000
    C224    C    0.87196   0.73589   0.32791   1.000
    C225    C    0.31886   0.25847   0.29541   1.000
    C226    C    0.31887   0.75850   0.29542   1.000
    C227    C    0.81886   0.25847   0.29541   1.000
    C228    C    0.81887   0.75850   0.29542   1.000
    C229    C    0.42930   0.22687   0.29284   1.000
    C230    C    0.42929   0.72685   0.29283   1.000
    C231    C    0.92930   0.22687   0.29284   1.000
    C232    C    0.92929   0.72685   0.29283   1.000
    C233    C    0.32309   0.27195   0.22885   1.000
    C234    C    0.32310   0.77197   0.22885   1.000
    C235    C    0.82309   0.27195   0.22885   1.000
    C236    C    0.82310   0.77197   0.22885   1.000
    C237    C    0.43347   0.24026   0.22625   1.000
    C238    C    0.43346   0.74024   0.22624   1.000
    C239    C    0.93347   0.24026   0.22625   1.000
    C240    C    0.93346   0.74024   0.22624   1.000
    C241    C    0.38044   0.26295   0.19377   1.000
    C242    C    0.38043   0.76295   0.19377   1.000
    C243    C    0.88044   0.26295   0.19377   1.000
    C244    C    0.88044   0.76295   0.19377   1.000
    C245    C    0.38513   0.27895   0.12260   1.000
    C246    C    0.38513   0.77895   0.12259   1.000
    C247    C    0.88513   0.27895   0.12260   1.000
    C248    C    0.88513   0.77895   0.12259   1.000
    C249    C    0.33096   0.08270   0.48971   1.000
    C250    C    0.33096   0.58271   0.48972   1.000
    C251    C    0.83096   0.08270   0.48971   1.000
    C252    C    0.83096   0.58271   0.48972   1.000
    C253    C    0.39320   0.05300   0.47301   1.000
    C254    C    0.39319   0.55301   0.47300   1.000
    C255    C    0.89320   0.05300   0.47301   1.000
    C256    C    0.89319   0.55301   0.47300   1.000
    C257    C    0.39533   0.04215   0.39841   1.000
    C258    C    0.39532   0.54214   0.39841   1.000
    C259    C    0.89533   0.04215   0.39840   1.000
    C260    C    0.89532   0.54214   0.39841   1.000
    C261    C    0.11701   0.02989   0.60088   1.000
    C262    C    0.11702   0.52987   0.60086   1.000
    C263    C    0.61701   0.02989   0.60088   1.000
    C264    C    0.61702   0.52987   0.60086   1.000
    C265    C    0.12177   0.01413   0.67212   1.000
    C266    C    0.12178   0.51407   0.67209   1.000
    C267    C    0.62177   0.01413   0.67212   1.000
    C268    C    0.62178   0.51407   0.67209   1.000
    C269    C    0.17919   0.52308   0.70704   1.000
    C270    C    0.67923   0.02303   0.70703   1.000
    C271    C    0.67919   0.52308   0.70704   1.000
    C272    C    0.07307   0.47789   0.77121   1.000
    C273    C    0.07300   0.97811   0.77130   1.000
    C274    C    0.57307   0.47789   0.77121   1.000
    C275    C    0.57300   0.97811   0.77130   1.000
    C276    C    0.18353   0.00958   0.77359   1.000
    C277    C    0.18349   0.50961   0.77360   1.000
    C278    C    0.68353   0.00958   0.77359   1.000
    C279    C    0.68350   0.50961   0.77360   1.000
    C280    C    0.13050   0.48686   0.80610   1.000
    C281    C    0.13048   0.98696   0.80621   1.000
    C282    C    0.63050   0.48686   0.80610   1.000
    C283    C    0.63048   0.98696   0.80621   1.000
    C284    C    0.13525   0.47081   0.87731   1.000
    C285    C    0.13523   0.97090   0.87735   1.000
    C286    C    0.63525   0.47081   0.87731   1.000
    C287    C    0.63523   0.97090   0.87735   1.000
    C288    C    0.08101   0.16731   0.51031   1.000
    C289    C    0.08101   0.66732   0.51030   1.000
    C290    C    0.58101   0.16731   0.51031   1.000
    C291    C    0.58101   0.66732   0.51030   1.000
    C292    C    0.14330   0.19700   0.52700   1.000
    C293    C    0.14329   0.69702   0.52696   1.000
    C294    C    0.64330   0.19700   0.52700   1.000
    C295    C    0.64329   0.69702   0.52696   1.000
    C296    C    0.14549   0.20783   0.60160   1.000
    C297    C    0.14548   0.70791   0.60150   1.000
    C298    C    0.64549   0.20783   0.60160   1.000
    C299    C    0.64548   0.70790   0.60150   1.000
    C300    C    0.13270   0.47019   0.10083   1.000
    C301    C    0.13271   0.97019   0.10083   1.000
    C302    C    0.63271   0.47019   0.10083   1.000
    C303    C    0.63271   0.97019   0.10083   1.000
    C304    C    0.12798   0.48593   0.17209   1.000
    C305    C    0.12798   0.98593   0.17210   1.000
    C306    C    0.62798   0.48593   0.17209   1.000
    C307    C    0.62798   0.98593   0.17210   1.000
    C308    C    0.18111   0.00851   0.20464   1.000
    C309    C    0.18109   0.50857   0.20462   1.000
    C310    C    0.68111   0.00851   0.20464   1.000
    C311    C    0.68109   0.50857   0.20462   1.000
    C312    C    0.07064   0.47684   0.20713   1.000
    C313    C    0.07061   0.97689   0.20712   1.000
    C314    C    0.57064   0.47684   0.20713   1.000
    C315    C    0.57061   0.97689   0.20712   1.000
    C316    C    0.17686   0.02196   0.27122   1.000
    C317    C    0.17684   0.52202   0.27120   1.000
    C318    C    0.67686   0.02196   0.27122   1.000
    C319    C    0.67684   0.52202   0.27120   1.000
    C320    C    0.06644   0.49022   0.27374   1.000
    C321    C    0.06642   0.99026   0.27373   1.000
    C322    C    0.56644   0.49022   0.27374   1.000
    C323    C    0.56642   0.99026   0.27373   1.000
    C324    C    0.11948   0.01295   0.30625   1.000
    C325    C    0.11948   0.51296   0.30624   1.000
    C326    C    0.61948   0.01295   0.30625   1.000
    C327    C    0.61948   0.51296   0.30624   1.000
    C328    C    0.11480   0.02895   0.37743   1.000
    C329    C    0.11479   0.52895   0.37743   1.000
    C330    C    0.61480   0.02895   0.37743   1.000
    C331    C    0.61479   0.52896   0.37743   1.000
    C332    C    0.16901   0.33269   0.01026   1.000
    C333    C    0.16900   0.83271   0.01020   1.000
    C334    C    0.66901   0.33269   0.01026   1.000
    C335    C    0.66900   0.83271   0.01020   1.000
    C336    C    0.10671   0.30298   0.02686   1.000
    C337    C    0.10670   0.80302   0.02693   1.000
    C338    C    0.60671   0.30298   0.02686   1.000
    C339    C    0.60670   0.80302   0.02693   1.000
    C340    C    0.10439   0.29217   0.10145   1.000
    C341    C    0.10438   0.79232   0.10155   1.000
    C342    C    0.60439   0.29217   0.10145   1.000
    C343    C    0.60438   0.79232   0.10155   1.000
    O344    O    0.33315   0.30112   0.92515   1.000
    O345    O    0.33315   0.80113   0.92514   1.000
    O346    O    0.83315   0.30112   0.92515   1.000
    O347    O    0.83315   0.80113   0.92514   1.000
    O348    O    0.43677   0.27116   0.92790   1.000
    O349    O    0.43677   0.77118   0.92789   1.000
    O350    O    0.93677   0.27116   0.92790   1.000
    O351    O    0.93677   0.77118   0.92789   1.000
    O352    O    0.31109   0.23103   0.59340   1.000
    O353    O    0.31110   0.73106   0.59338   1.000
    O354    O    0.81110   0.23103   0.59300   1.000
    O355    O    0.81110   0.73106   0.59338   1.000
    O356    O    0.41373   0.19884   0.59708   1.000
    O357    O    0.41373   0.69886   0.59707   1.000
    O358    O    0.91373   0.19884   0.59700   1.000
    O359    O    0.91373   0.69886   0.59707   1.000
    O360    O    0.41204   0.37045   0.01423   1.000
    O361    O    0.41203   0.87046   0.01423   1.000
    O362    O    0.91204   0.37045   0.01423   1.000
    O363    O    0.91203   0.87046   0.01423   1.000
    O364    O    0.47201   0.43961   0.97792   1.000
    O365    O    0.47200   0.93961   0.97791   1.000
    O366    O    0.97201   0.43961   0.97792   1.000
    O367    O    0.97200   0.93961   0.97791   1.000
    O368    O    0.30231   0.41777   0.99679   1.000
    O369    O    0.30230   0.91778   0.99678   1.000
    O370    O    0.80231   0.41777   0.99679   1.000
    O371    O    0.80230   0.91778   0.99678   1.000
    O372    O    0.41681   0.19902   0.42511   1.000
    O373    O    0.41680   0.69902   0.42511   1.000
    O374    O    0.91681   0.19902   0.42511   1.000
    O375    O    0.91680   0.69902   0.42511   1.000
    O376    O    0.31313   0.22883   0.42788   1.000
    O377    O    0.31312   0.72884   0.42788   1.000
    O378    O    0.81313   0.22883   0.42788   1.000
    O379    O    0.81312   0.72884   0.42788   1.000
    O380    O    0.43890   0.26902   0.09340   1.000
    O381    O    0.43890   0.76902   0.09340   1.000
    O382    O    0.93890   0.26902   0.09340   1.000
    O383    O    0.93890   0.76902   0.09340   1.000
    O384    O    0.33624   0.30115   0.09709   1.000
    O385    O    0.33624   0.80115   0.09709   1.000
    O386    O    0.83624   0.30115   0.09709   1.000
    O387    O    0.83624   0.80115   0.09709   1.000
    O388    O    0.33802   0.12953   0.51416   1.000
    O389    O    0.33802   0.62954   0.51416   1.000
    O390    O    0.83802   0.12953   0.51416   1.000
    O391    O    0.83802   0.62954   0.51416   1.000
    O392    O    0.27798   0.06040   0.47782   1.000
    O393    O    0.27798   0.56041   0.47782   1.000
    O394    O    0.77798   0.06040   0.47782   1.000
    O395    O    0.77798   0.56041   0.47782   1.000
    O396    O    0.44778   0.08264   0.49495   1.000
    O397    O    0.44778   0.58265   0.49495   1.000
    O398    O    0.94778   0.08264   0.49495   1.000
    O399    O    0.94778   0.58265   0.49495   1.000
    O400    O    0.16665   0.05095   0.57488   1.000
    O401    O    0.16664   0.55096   0.57488   1.000
    O402    O    0.66665   0.05095   0.57488   1.000
    O403    O    0.66665   0.55096   0.57488   1.000
    O404    O    0.06284   0.02129   0.57223   1.000
    O405    O    0.08627   0.94881   0.90294   1.000
    O406    O    0.58625   0.44879   0.90290   1.000
    O407    O    0.58627   0.94881   0.90294   1.000
    O408    O    0.08803   0.12048   0.48580   1.000
    O409    O    0.08803   0.62049   0.48585   1.000
    O410    O    0.58803   0.12048   0.48580   1.000
    O411    O    0.58803   0.62049   0.48585   1.000
    O412    O    0.02806   0.18960   0.52221   1.000
    O413    O    0.02805   0.68960   0.52221   1.000
    O414    O    0.52806   0.18960   0.52221   1.000
    O415    O    0.52805   0.68960   0.52221   1.000
    O416    O    0.19784   0.16737   0.50500   1.000
    O417    O    0.19783   0.66737   0.50500   1.000
    O418    O    0.69784   0.16737   0.50500   1.000
    O419    O    0.69784   0.66737   0.50500   1.000
    O420    O    0.08313   0.44898   0.07489   1.000
    O421    O    0.08313   0.94899   0.07489   1.000
    O422    O    0.58313   0.44899   0.07480   1.000
    O423    O    0.58313   0.94899   0.07489   1.000
    O424    O    0.18677   0.47896   0.07208   1.000
    O425    O    0.18677   0.97896   0.07208   1.000
    O426    O    0.68677   0.47896   0.07208   1.000
    O427    O    0.68677   0.97896   0.07208   1.000
    O428    O    0.06104   0.01898   0.40664   1.000
    O429    O    0.06104   0.51899   0.40663   1.000
    O430    O    0.56104   0.01898   0.40664   1.000
    O431    O    0.56104   0.51899   0.40663   1.000
    O432    O    0.16371   0.05118   0.40294   1.000
    O433    O    0.16371   0.55119   0.40294   1.000
    O434    O    0.66371   0.05118   0.40294   1.000
    O435    O    0.66371   0.55119   0.40294   1.000
    O436    O    0.16201   0.37950   0.98583   1.000
    O437    O    0.16201   0.87952   0.98581   1.000
    O438    O    0.66201   0.37950   0.98583   1.000
    O439    O    0.66201   0.87952   0.98581   1.000
    O440    O    0.22195   0.31041   0.02219   1.000
    O441    O    0.22195   0.81042   0.02220   1.000
    O442    O    0.72195   0.31041   0.02219   1.000
    O443    O    0.72195   0.81042   0.02220   1.000
    O444    O    0.05218   0.33258   0.00481   1.000
    O445    O    0.05218   0.83260   0.00482   1.000
    O446    O    0.55218   0.33258   0.00481   1.000
    O447    O    0.55218   0.83260   0.00482   1.000
loop_
    _geom_bond_atom_site_label_1
    _geom_bond_atom_site_label_2
    _geom_bond_distance
    _geom_bond_site_symmetry_2
    _ccdc_geom_bond_type
    H51    C100      1.09797  1_554   S
    H50    C207      1.09774  1_554   S
    H49    C206      1.09797  1_554   S
    H48    C205      1.09774  1_554   S
    O446   Zn32      1.93091      .   S
    O446   C338      1.42611      .   S
    O444   Zn1       1.93091  1_455   S
    O444   C336      1.42610      .   S
    O447   Zn0       1.93093      .   S
    O447   C339      1.42611      .   S
    O445   Zn2       1.93093  1_455   S
    O445   C337      1.42609      .   S
    C335   O443      1.25713      .   S
    C335   C339      1.52996      .   S
    C335   O439      1.28382  1_554   S
    C333   O441      1.25713      .   S
    C333   C337      1.52998      .   S
    C333   O437      1.28382  1_554   S
    C334   O442      1.25683      .   S
    C334   C338      1.52961      .   S
    C334   O438      1.28435  1_554   S
    C332   O440      1.25682      .   S
    C332   C336      1.52963      .   S
    C332   O436      1.28435  1_554   S
    Zn0    O361      2.02707      .   S
    Zn0    O381      1.95802      .   S
    Zn0    O349      1.96661  1_554   S
    Zn32   O360      2.02702      .   S
    Zn32   O380      1.95798      .   S
    Zn32   O348      1.96656  1_554   S
    Zn1    O362      2.02701      .   S
    Zn1    O382      1.95796      .   S
    Zn1    O350      1.96656  1_554   S
    Zn2    O363      2.02707      .   S
    Zn2    O383      1.95802      .   S
    Zn2    O351      1.96661  1_554   S
    Zn4    O441      2.04853      .   S
    Zn4    O385      2.02364      .   S
    Zn4    O345      2.01353  1_554   S
    Zn6    O443      2.04853      .   S
    Zn6    O387      2.02365      .   S
    Zn6    O347      2.01353  1_554   S
    Zn5    O442      2.04853      .   S
    Zn5    O386      2.02364      .   S
    Zn5    O346      2.01341  1_554   S
    Zn3    O440      2.04855      .   S
    Zn3    O384      2.02363      .   S
    Zn3    O344      2.01341  1_554   S
    O360   C201      1.28428  1_554   S
    O361   C202      1.28500  1_554   S
    O362   C203      1.28428  1_554   S
    O363   C204      1.28431  1_554   S
    C338   C342      1.53317      .   S
    C338   H155      1.10561  1_554   S
    C336   C340      1.53317      .   S
    C336   H153      1.10561  1_554   S
    C337   C341      1.53329      .   S
    C337   H154      1.10564      .   S
    C339   C343      1.53330      .   S
    C339   H156      1.10564      .   S
    O427   C303      1.28232      .   S
    O427   Zn26      1.96666  1_554   S
    O426   C302      1.28232      .   S
    O426   Zn25      1.96673  1_554   S
    O425   C301      1.28232      .   S
    O425   Zn24      1.96666  1_554   S
    O424   C300      1.28233      .   S
    O424   Zn23      1.96672  1_554   S
    O422   C302      1.27209      .   S
    O422   Zn29      2.01105  1_554   S
    O420   C300      1.27134      .   S
    O420   Zn27      2.01261  1_554   S
    O421   C301      1.27131      .   S
    O421   Zn28      2.01256  1_554   S
    O423   C303      1.27131      .   S
    O423   Zn30      2.01256  1_554   S
    O383   C248      1.28654      .   S
    O382   C247      1.28666      .   S
    O381   C246      1.28655      .   S
    O380   C245      1.28665      .   S
    O386   C247      1.26789      .   S
    O384   C245      1.26790      .   S
    O385   C246      1.26783      .   S
    O387   C248      1.26782      .   S
    C300   C304      1.49708      .   S
    C301   C305      1.49727      .   S
    C302   C306      1.49709      .   S
    C303   C307      1.49727      .   S
    C340   H157      1.09746      .   S
    C340   H161      1.09743      .   S
    C340   H165      1.09915      .   S
    C342   H159      1.09745      .   S
    C342   H163      1.09743      .   S
    C342   H167      1.09917      .   S
    C341   H158      1.09743      .   S
    C341   H162      1.09743      .   S
    C341   H166      1.09908      .   S
    C343   H160      1.09741      .   S
    C343   H164      1.09742      .   S
    C343   H168      1.09910      .   S
    C246   C242      1.49751      .   S
    C248   C244      1.49752      .   S
    C245   C241      1.49731      .   S
    C247   C243      1.49731      .   S
    C306   C311      1.40340      .   S
    C306   C314      1.40337      .   S
    C304   C309      1.40340      .   S
    C304   C312      1.40337      .   S
    C307   C310      1.40333  1_565   S
    C307   C315      1.40336      .   S
    C305   C308      1.40333  1_565   S
    C305   C313      1.40334      .   S
    H140   C311      1.08879      .   S
    H138   C309      1.08879      .   S
    H139   C310      1.08871      .   S
    H137   C308      1.08872      .   S
    H144   C315      1.08885      .   S
    H142   C313      1.08885      .   S
    H143   C314      1.08889      .   S
    H141   C312      1.08888      .   S
    C241   C237      1.40317      .   S
    C241   C233      1.40358      .   S
    C242   C238      1.40316      .   S
    C242   C234      1.40348      .   S
    C244   C240      1.40315      .   S
    C244   C236      1.40349      .   S
    C243   C239      1.40317      .   S
    C243   C235      1.40358      .   S
    H79    C240      1.08847      .   S
    H77    C238      1.08846      .   S
    H78    C239      1.08843      .   S
    H76    C237      1.08843      .   S
    H74    C235      1.08892      .   S
    H72    C233      1.08892      .   S
    H75    C236      1.08890      .   S
    H73    C234      1.08889      .   S
    C309   C317      1.39060      .   S
    C311   C319      1.39060      .   S
    C308   C316      1.39058      .   S
    C310   C318      1.39058      .   S
    C315   C323      1.39061      .   S
    C313   C321      1.39061      .   S
    C314   C322      1.39062      .   S
    C312   C320      1.39063      .   S
    C238   C230      1.39053      .   S
    C240   C232      1.39052      .   S
    C239   C231      1.39053      .   S
    C237   C229      1.39052      .   S
    C236   C228      1.39070      .   S
    C235   C227      1.39051      .   S
    C234   C226      1.39071      .   S
    C233   C225      1.39051      .   S
    C319   H148      1.08879      .   S
    C319   C327      1.40343      .   S
    C317   H146      1.08880      .   S
    C317   C325      1.40344      .   S
    C316   H145      1.08886      .   S
    C316   C324      1.40353      .   S
    C318   H147      1.08886      .   S
    C318   C326      1.40353      .   S
    C321   H150      1.08841      .   S
    C321   C324      1.40309  1_565   S
    C323   H152      1.08841      .   S
    C323   C326      1.40309  1_565   S
    C322   H151      1.08847      .   S
    C322   C327      1.40307      .   S
    C320   H149      1.08846      .   S
    C320   C325      1.40306      .   S
    C232   H71       1.08887      .   S
    C232   C224      1.40344      .   S
    C230   H69       1.08887      .   S
    C230   C222      1.40345      .   S
    C229   H68       1.08890      .   S
    C229   C221      1.40344      .   S
    C231   H70       1.08889      .   S
    C231   C223      1.40344      .   S
    C227   H66       1.08875      .   S
    C227   C223      1.40341      .   S
    C225   H64       1.08875      .   S
    C225   C221      1.40341      .   S
    C228   H67       1.08869      .   S
    C228   C224      1.40340      .   S
    C226   H65       1.08870      .   S
    C226   C222      1.40337      .   S
    C327   C331      1.49735      .   S
    C325   C329      1.49734      .   S
    C324   C328      1.49720      .   S
    C326   C330      1.49720      .   S
    C221   C217      1.49723      .   S
    C224   C220      1.49723      .   S
    C223   C219      1.49723      .   S
    C222   C218      1.49722      .   S
    H95    C260      1.09910      .   S
    H94    C259      1.09911      .   S
    H93    C258      1.09908      .   S
    H92    C257      1.09919      .   S
    C331   O435      1.26792      .   S
    C331   O431      1.28645      .   S
    C330   O434      1.26792      .   S
    C330   O430      1.28651      .   S
    C329   O433      1.26793      .   S
    C329   O429      1.28645      .   S
    C328   O432      1.26792      .   S
    C328   O428      1.28652      .   S
    H88    C257      1.09750      .   S
    H90    C259      1.09743      .   S
    H89    C258      1.09744      .   S
    H91    C260      1.09744      .   S
    H84    C257      1.09745      .   S
    H86    C259      1.09739      .   S
    H85    C258      1.09740      .   S
    H87    C260      1.09741      .   S
    C259   C255      1.53345      .   S
    C260   C256      1.53309      .   S
    C257   C253      1.53325      .   S
    C258   C254      1.53309      .   S
    C220   O375      1.27133      .   S
    C220   O379      1.28264      .   S
    C219   O374      1.27135      .   S
    C219   O378      1.28265      .   S
    C218   O373      1.27133      .   S
    C218   O377      1.28265      .   S
    C217   O372      1.27134      .   S
    C217   O376      1.28265      .   S
    O435   Zn22      2.02302      .   S
    O434   Zn21      2.00746      .   S
    O433   Zn20      2.02302      .   S
    O432   Zn19      2.00746      .   S
    O431   Zn18      1.95779      .   S
    O429   Zn16      1.95777      .   S
    O430   Zn17      1.95767      .   S
    O428   Zn15      1.95767      .   S
    O372   Zn11      2.01343      .   S
    O375   Zn14      2.01342      .   S
    O374   Zn13      2.01342      .   S
    O373   Zn12      2.01341      .   S
    O378   Zn9       1.96646      .   S
    O376   Zn7       1.96646      .   S
    O377   Zn8       1.96644      .   S
    O379   Zn10      1.96646      .   S
    C254   C250      1.52962      .   S
    C254   O397      1.42615      .   S
    C254   H81       1.10574      .   S
    C256   C252      1.52962      .   S
    C256   O399      1.42615      .   S
    C256   H83       1.10574      .   S
    C253   C249      1.52953      .   S
    C253   O396      1.42602      .   S
    C253   H80       1.10563      .   S
    C255   C251      1.52951      .   S
    C255   O398      1.42601      .   S
    C255   H82       1.10565      .   S
    O392   Zn19      2.04643      .   S
    O392   C249      1.25679      .   S
    O393   Zn20      2.04834      .   S
    O393   C250      1.25682      .   S
    O394   Zn21      2.04643      .   S
    O394   C251      1.25678      .   S
    O395   Zn22      2.04834      .   S
    O395   C252      1.25682      .   S
    O410   Zn17      2.02763      .   S
    O410   C290      1.28483      .   S
    O408   Zn15      2.02763      .   S
    O408   C288      1.28483      .   S
    O411   Zn18      2.02760      .   S
    O411   C291      1.28446      .   S
    O409   Zn16      2.02760      .   S
    O409   C289      1.28446      .   S
    Zn21   O402      2.02935      .   S
    Zn19   O400      2.02935      .   S
    Zn18   O397      1.93122      .   S
    Zn18   O210      1.96645      .   S
    Zn17   O396      1.93120      .   S
    Zn17   O209      1.96647      .   S
    Zn16   O399      1.93122  1_455   S
    Zn16   O208      1.96645      .   S
    Zn15   O398      1.93120  1_455   S
    Zn15   O404      1.96645      .   S
    Zn22   O403      2.01362      .   S
    Zn20   O401      2.01364      .   S
    C251   O390      1.28448      .   S
    C249   O388      1.28447      .   S
    C252   O391      1.28440      .   S
    C250   O389      1.28440      .   S
    H117   C293      1.10564      .   S
    H119   C295      1.10564      .   S
    H118   C294      1.10569      .   S
    H116   C292      1.10569      .   S
    O419   Zn10      1.93083      .   S
    O419   C295      1.42612      .   S
    O416   Zn7       1.93085      .   S
    O416   C292      1.42613      .   S
    O417   Zn8       1.93085      .   S
    O417   C293      1.42610      .   S
    O418   Zn9       1.93085      .   S
    O418   C294      1.42613      .   S
    C289   O413      1.25684      .   S
    C289   C293      1.52961      .   S
    C291   O415      1.25684      .   S
    C291   C295      1.52961      .   S
    C290   O414      1.25681      .   S
    C290   C294      1.52961      .   S
    C288   O412      1.25681      .   S
    C288   C292      1.52961      .   S
    Zn14   O413      2.04857  1_655   S
    Zn14   O359      2.02351      .   S
    Zn13   O412      2.04858  1_655   S
    Zn13   O358      2.02220      .   S
    Zn11   O414      2.04858      .   S
    Zn11   O356      2.02359      .   S
    Zn12   O415      2.04857      .   S
    Zn12   O357      2.02351      .   S
    Zn7    O388      2.02787      .   S
    Zn7    O352      1.95803      .   S
    Zn8    O389      2.02787      .   S
    Zn8    O353      1.95804      .   S
    Zn9    O390      2.02788      .   S
    Zn9    O354      1.95121      .   S
    Zn10   O391      2.02787      .   S
    Zn10   O355      1.95804      .   S
    C295   C299      1.53222      .   S
    C293   C297      1.53222      .   S
    C294   C298      1.53316      .   S
    C292   C296      1.53316      .   S
    O208   C262      1.28273      .   S
    O210   C264      1.28272      .   S
    O209   C263      1.28277      .   S
    O404   C261      1.28278      .   S
    O400   C261      1.27144      .   S
    O401   C262      1.27139      .   S
    O402   C263      1.27146      .   S
    O403   C264      1.27143      .   S
    O354   C199      1.29021      .   S
    O355   C200      1.28645      .   S
    O353   C198      1.28645      .   S
    O352   C197      1.28647      .   S
    O358   C199      1.26858      .   S
    O359   C200      1.26796      .   S
    O357   C198      1.26796      .   S
    O356   C197      1.26794      .   S
    C264   C268      1.49731      .   S
    C262   C266      1.49731      .   S
    C261   C265      1.49726      .   S
    C263   C267      1.49726      .   S
    C299   H123      1.09769      .   S
    C299   H127      1.09775      .   S
    C299   H131      1.09971      .   S
    C297   H121      1.09768      .   S
    C297   H125      1.09775      .   S
    C297   H129      1.09973      .   S
    C298   H122      1.09745      .   S
    C298   H126      1.09745      .   S
    C298   H130      1.09918      .   S
    C296   H120      1.09743      .   S
    C296   H124      1.09744      .   S
    C296   H128      1.09918      .   S
    C200   C196      1.49711      .   S
    C198   C194      1.49711      .   S
    C197   C193      1.49738      .   S
    C199   C195      1.49741      .   S
    C266   C132      1.40341      .   S
    C266   C269      1.40338      .   S
    C268   C134      1.40340      .   S
    C268   C271      1.40338      .   S
    C267   C135      1.40338  1_545   S
    C267   C270      1.40341      .   S
    C265   C133      1.40340  1_545   S
    C265   C136      1.40340      .   S
    H96    C132      1.08871      .   S
    H98    C134      1.08872      .   S
    H97    C133      1.08875      .   S
    H99    C135      1.08877      .   S
    H104   C136      1.08887      .   S
    H106   C270      1.08886      .   S
    H105   C269      1.08915      .   S
    H107   C271      1.08887      .   S
    C194   C190      1.40325      .   S
    C194   C186      1.40367      .   S
    C196   C192      1.40326      .   S
    C196   C188      1.40367      .   S
    C193   C189      1.40311      .   S
    C193   C185      1.40345      .   S
    C195   C191      1.40312      .   S
    C195   C187      1.40344      .   S
    H45    C190      1.08840      .   S
    H47    C192      1.08838      .   S
    H46    C191      1.08850      .   S
    H44    C189      1.08837      .   S
    H41    C186      1.08889      .   S
    H43    C188      1.08889      .   S
    H42    C187      1.08882      .   S
    H40    C185      1.08880      .   S
    C132   C272      1.39059      .   S
    C134   C274      1.39060      .   S
    C133   C273      1.39072      .   S
    C135   C275      1.39072      .   S
    C136   C276      1.39057      .   S
    C270   C278      1.39057      .   S
    C271   C279      1.39068      .   S
    C269   C277      1.39067      .   S
    C192   C184      1.39068      .   S
    C190   C182      1.39068      .   S
    C189   C181      1.39072      .   S
    C191   C183      1.39071      .   S
    C186   C178      1.39065      .   S
    C188   C180      1.39066      .   S
    C185   C177      1.39069      .   S
    C187   C179      1.39067      .   S
    C272   H108      1.08837      .   S
    C272   C280      1.40290      .   S
    C274   H110      1.08837      .   S
    C274   C282      1.40291      .   S
    C275   H111      1.08890      .   S
    C275   C283      1.40356      .   S
    C273   H109      1.08888      .   S
    C273   C281      1.40358      .   S
    C276   H112      1.08771      .   S
    C276   C281      1.40318  1_545   S
    C278   H114      1.08771      .   S
    C278   C283      1.40319  1_545   S
    C277   H113      1.08848      .   S
    C277   C280      1.40253      .   S
    C279   H115      1.08849      .   S
    C279   C282      1.40252      .   S
    C182   H37       1.08882      .   S
    C182   C174      1.40335      .   S
    C184   H39       1.08884      .   S
    C184   C176      1.40334      .   S
    C181   H36       1.08882      .   S
    C181   C173      1.40331      .   S
    C183   H38       1.08827      .   S
    C183   C175      1.40328      .   S
    C178   H33       1.08853      .   S
    C178   C174      1.40332      .   S
    C180   H35       1.08851      .   S
    C180   C176      1.40333      .   S
    C177   H31       1.08870      .   S
    C177   C173      1.40333      .   S
    C179   H34       1.08871      .   S
    C179   C175      1.40336      .   S
    C280   C284      1.49862      .   S
    C282   C286      1.49862      .   S
    C283   C287      1.49733      .   S
    C281   C285      1.49733      .   S
    C176   C172      1.49602      .   S
    C174   C170      1.49602      .   S
    C175   C171      1.49726      .   S
    C173   C169      1.49727      .   S
    H63    C216      1.09917      .   S
    H61    C102      1.09877      .   S
    H62    C103      1.09853      .   S
    H60    C101      1.09915      .   S
    C284   O215      1.26758      .   S
    C284   O211      1.28652      .   S
    C286   O406      1.26757      .   S
    C286   O213      1.28654      .   S
    C285   O405      1.26788      .   S
    C285   O212      1.28622      .   S
    C287   O407      1.26786      .   S
    C287   O214      1.28622      .   S
    H56    C101      1.09777      .   S
    H57    C102      1.09735      .   S
    H59    C216      1.09749      .   S
    H58    C103      1.09707      .   S
    H53    C102      1.09723      .   S
    H55    C216      1.09741      .   S
    H52    C101      1.09742      .   S
    H54    C103      1.09713      .   S
    C170   O345      1.27203      .   S
    C170   O349      1.28306      .   S
    C172   O347      1.27202      .   S
    C172   O351      1.28306      .   S
    C169   O344      1.27153      .   S
    C169   O348      1.28248      .   S
    C171   O346      1.27152      .   S
    C171   O350      1.28247      .   S
    C102   C206      1.53444      .   S
    C103   C207      1.53472      .   S
    C216   C100      1.53364      .   S
    C101   C205      1.53352      .   S
    O215   Zn27      2.02361      .   S
    O406   Zn29      2.02361      .   S
    O405   Zn28      2.02309      .   S
    O407   Zn30      2.02309      .   S
    O211   Zn23      1.95773      .   S
    O213   Zn25      1.95771      .   S
    O212   Zn24      1.95867      .   S
    O214   Zn26      1.95867      .   S
    C100   C204      1.52928      .   S
    C100   O371      1.42640      .   S
    C206   C202      1.52890      .   S
    C206   O369      1.42640      .   S
    C207   C203      1.52931      .   S
    C207   O370      1.42644      .   S
    C205   C201      1.52931      .   S
    C205   O368      1.42644      .   S
    O365   Zn30      2.04840      .   S
    O365   C202      1.25639      .   S
    O367   Zn28      2.04839  1_655   S
    O367   C204      1.25675      .   S
    O364   Zn29      2.04837      .   S
    O364   C201      1.25672      .   S
    O366   Zn27      2.04835  1_655   S
    O366   C203      1.25674      .   S
    O439   Zn26      2.02750      .   S
    O437   Zn24      2.02750      .   S
    O438   Zn25      2.02745      .   S
    O436   Zn23      2.02746      .   S
    Zn26   O371      1.93190      .   S
    Zn24   O369      1.93190      .   S
    Zn23   O368      1.93187      .   S
    Zn25   O370      1.93187      .   S
    O360   Zn3       2.18674      .   S
    O361   Zn4       2.18671      .   S
    O362   Zn5       2.18675      .   S
    O363   Zn6       2.18671      .   S
    O368   Zn3       2.03460  1_556   S
    O369   Zn4       2.03471  1_556   S
    O370   Zn5       2.03460  1_556   S
    O371   Zn6       2.03471  1_556   S
    O388   Zn11      2.18649      .   S
    O389   Zn12      2.18647      .   S
    O390   Zn13      2.18647      .   S
    O391   Zn14      2.18647      .   S
    O396   Zn11      2.03192      .   S
    O397   Zn12      2.03190      .   S
    O398   Zn13      2.03192      .   S
    O399   Zn14      2.03190      .   S
    O408   Zn19      2.18644      .   S
    O409   Zn20      2.18682      .   S
    O410   Zn21      2.18646      .   S
    O411   Zn22      2.18682      .   S
    O416   Zn19      2.03479      .   S
    O417   Zn20      2.03178      .   S
    O418   Zn21      2.03479      .   S
    O419   Zn22      2.03178      .   S
    O436   Zn27      2.18777      .   S
    O437   Zn28      2.18793      .   S
    O438   Zn29      2.18779      .   S
    O439   Zn30      2.18792      .   S
    O444   Zn27      2.03195  1_554   S
    O445   Zn28      2.03191  1_554   S
    O446   Zn29      2.03195  1_554   S
    O447   Zn30      2.03191  1_554   S
