# CIF file generated by openbabel 2.4.90, see http://openbabel.sf.net
data_I
_chemical_name_common ''
_cell_length_a 20.75
_cell_length_b 25.128
_cell_length_c 20.218
_cell_angle_alpha 90.024
_cell_angle_beta 89.988
_cell_angle_gamma 90.036
_space_group_name_H-M_alt 'P 1'
_space_group_name_Hall 'P 1'
loop_
    _symmetry_equiv_pos_as_xyz
    x,y,z
loop_
    _atom_site_label
    _atom_site_type_symbol
    _atom_site_fract_x
    _atom_site_fract_y
    _atom_site_fract_z
    _atom_site_occupancy
    Zr0     Zr   0.46629   0.30343   0.01119   1.000
    Zr1     Zr   0.46628   0.80344   0.01119   1.000
    Zr2     Zr   0.96629   0.30343   0.01119   1.000
    Zr3     Zr   0.96628   0.80344   0.01119   1.000
    Zr4     Zr   0.31415   0.33825   0.01123   1.000
    Zr5     Zr   0.31414   0.83826   0.01123   1.000
    Zr6     Zr   0.81415   0.33825   0.01123   1.000
    Zr7     Zr   0.81414   0.83826   0.01123   1.000
    Zr8     Zr   0.28372   0.19656   0.51119   1.000
    Zr9     Zr   0.28372   0.69657   0.51119   1.000
    Zr10    Zr   0.78372   0.19656   0.51119   1.000
    Zr11    Zr   0.78372   0.69657   0.51119   1.000
    Zr12    Zr   0.43584   0.16184   0.51111   1.000
    Zr13    Zr   0.43583   0.66185   0.51111   1.000
    Zr14    Zr   0.93584   0.16184   0.51111   1.000
    Zr15    Zr   0.93583   0.66185   0.51111   1.000
    Zr16    Zr   0.03365   0.05346   0.48881   1.000
    Zr17    Zr   0.03365   0.55346   0.48881   1.000
    Zr18    Zr   0.53365   0.05346   0.48881   1.000
    Zr19    Zr   0.53365   0.55346   0.48881   1.000
    Zr20    Zr   0.18581   0.08816   0.48800   1.000
    Zr21    Zr   0.18581   0.58817   0.48890   1.000
    Zr22    Zr   0.68581   0.08816   0.48800   1.000
    Zr23    Zr   0.68581   0.58817   0.48890   1.000
    Zr24    Zr   0.21635   0.44654   0.98889   1.000
    Zr25    Zr   0.21634   0.94656   0.98888   1.000
    Zr26    Zr   0.71635   0.44654   0.98889   1.000
    Zr27    Zr   0.71634   0.94656   0.98888   1.000
    Zr28    Zr   0.06417   0.41181   0.98887   1.000
    Zr29    Zr   0.06416   0.91182   0.98887   1.000
    Zr30    Zr   0.56417   0.41181   0.98887   1.000
    Zr31    Zr   0.56416   0.91182   0.98887   1.000
    Zr32    Zr   0.38271   0.27993   0.89918   1.000
    Zr33    Zr   0.38272   0.77997   0.89910   1.000
    Zr34    Zr   0.88271   0.27994   0.89918   1.000
    Zr35    Zr   0.88272   0.77997   0.89910   1.000
    Zr36    Zr   0.36485   0.22110   0.62258   1.000
    Zr37    Zr   0.36486   0.72114   0.62256   1.000
    Zr38    Zr   0.86485   0.22110   0.62258   1.000
    Zr39    Zr   0.86486   0.72114   0.62256   1.000
    Zr40    Zr   0.41906   0.41736   0.99010   1.000
    Zr41    Zr   0.41905   0.91737   0.99000   1.000
    Zr42    Zr   0.91906   0.41736   0.99010   1.000
    Zr43    Zr   0.91905   0.91737   0.99009   1.000
    Zr44    Zr   0.36723   0.22014   0.39916   1.000
    Zr45    Zr   0.36723   0.72015   0.39916   1.000
    Zr46    Zr   0.86723   0.22014   0.39916   1.000
    Zr47    Zr   0.86723   0.72015   0.39916   1.000
    Zr48    Zr   0.38513   0.27895   0.12260   1.000
    Zr49    Zr   0.38513   0.77895   0.12259   1.000
    Zr50    Zr   0.88513   0.27895   0.12260   1.000
    Zr51    Zr   0.88513   0.77895   0.12259   1.000
    Zr52    Zr   0.33096   0.08270   0.48971   1.000
    Zr53    Zr   0.33096   0.58271   0.48972   1.000
    Zr54    Zr   0.83096   0.08270   0.48971   1.000
    Zr55    Zr   0.83096   0.58271   0.48972   1.000
    Zr56    Zr   0.11701   0.02989   0.60088   1.000
    Zr57    Zr   0.11702   0.52987   0.60086   1.000
    Zr58    Zr   0.61701   0.02989   0.60088   1.000
    Zr59    Zr   0.61702   0.52987   0.60086   1.000
    Zr60    Zr   0.13525   0.47081   0.87731   1.000
    Zr61    Zr   0.13523   0.97090   0.87735   1.000
    Zr62    Zr   0.63525   0.47081   0.87731   1.000
    Zr63    Zr   0.63523   0.97090   0.87735   1.000
    Zr64    Zr   0.08101   0.16731   0.51031   1.000
    Zr65    Zr   0.08101   0.66732   0.51030   1.000
    Zr66    Zr   0.58101   0.16731   0.51031   1.000
    Zr67    Zr   0.58101   0.66732   0.51030   1.000
    Zr68    Zr   0.13270   0.47019   0.10083   1.000
    Zr69    Zr   0.13271   0.97019   0.10083   1.000
    Zr70    Zr   0.63271   0.47019   0.10083   1.000
    Zr71    Zr   0.63271   0.97019   0.10083   1.000
    Zr72    Zr   0.11480   0.02895   0.37743   1.000
    Zr73    Zr   0.11479   0.52895   0.37743   1.000
    Zr74    Zr   0.61480   0.02895   0.37743   1.000
    Zr75    Zr   0.61479   0.52896   0.37743   1.000
    Zr76    Zr   0.16901   0.33269   0.01026   1.000
    Zr77    Zr   0.16900   0.83271   0.01020   1.000
    Zr78    Zr   0.66901   0.33269   0.01026   1.000
    Zr79    Zr   0.66900   0.83271   0.01020   1.000
    Zr80    Zr   0.33315   0.30112   0.92515   1.000
    Zr81    Zr   0.33315   0.80113   0.92514   1.000
    Zr82    Zr   0.83315   0.30112   0.92515   1.000
    Zr83    Zr   0.83315   0.80113   0.92514   1.000
    Zr84    Zr   0.43677   0.27116   0.92790   1.000
    Zr85    Zr   0.43677   0.77118   0.92789   1.000
    Zr86    Zr   0.93677   0.27116   0.92790   1.000
    Zr87    Zr   0.93677   0.77118   0.92789   1.000
    Zr88    Zr   0.31109   0.23103   0.59340   1.000
    Zr89    Zr   0.31110   0.73106   0.59338   1.000
    Zr90    Zr   0.81110   0.23103   0.59300   1.000
    Zr91    Zr   0.81110   0.73106   0.59338   1.000
    Zr92    Zr   0.41373   0.19884   0.59708   1.000
    Zr93    Zr   0.41373   0.69886   0.59707   1.000
    Zr94    Zr   0.91373   0.19884   0.59700   1.000
    Zr95    Zr   0.91373   0.69886   0.59707   1.000
    Zr96    Zr   0.41204   0.37045   0.01423   1.000
    Zr97    Zr   0.41203   0.87046   0.01423   1.000
    Zr98    Zr   0.91204   0.37045   0.01423   1.000
    Zr99    Zr   0.91203   0.87046   0.01423   1.000
    Zr100   Zr   0.47201   0.43961   0.97792   1.000
    Zr101   Zr   0.47200   0.93961   0.97791   1.000
    Zr102   Zr   0.97201   0.43961   0.97792   1.000
    Zr103   Zr   0.97200   0.93961   0.97791   1.000
    Zr104   Zr   0.41681   0.19902   0.42511   1.000
    Zr105   Zr   0.41680   0.69902   0.42511   1.000
    Zr106   Zr   0.91681   0.19902   0.42511   1.000
    Zr107   Zr   0.91680   0.69902   0.42511   1.000
    Zr108   Zr   0.31313   0.22883   0.42788   1.000
    Zr109   Zr   0.31312   0.72884   0.42788   1.000
    Zr110   Zr   0.81313   0.22883   0.42788   1.000
    Zr111   Zr   0.81312   0.72884   0.42788   1.000
    Zr112   Zr   0.43890   0.26902   0.09340   1.000
    Zr113   Zr   0.43890   0.76902   0.09340   1.000
    Zr114   Zr   0.93890   0.26902   0.09340   1.000
    Zr115   Zr   0.93890   0.76902   0.09340   1.000
    Zr116   Zr   0.33624   0.30115   0.09709   1.000
    Zr117   Zr   0.33624   0.80115   0.09709   1.000
    Zr118   Zr   0.83624   0.30115   0.09709   1.000
    Zr119   Zr   0.83624   0.80115   0.09709   1.000
    Zr120   Zr   0.33802   0.12953   0.51416   1.000
    Zr121   Zr   0.33802   0.62954   0.51416   1.000
    Zr122   Zr   0.83802   0.12953   0.51416   1.000
    Zr123   Zr   0.83802   0.62954   0.51416   1.000
    Zr124   Zr   0.27798   0.06040   0.47782   1.000
    Zr125   Zr   0.27798   0.56041   0.47782   1.000
    Zr126   Zr   0.77798   0.06040   0.47782   1.000
    Zr127   Zr   0.77798   0.56041   0.47782   1.000
    Zr128   Zr   0.16665   0.05095   0.57488   1.000
    Zr129   Zr   0.16664   0.55096   0.57488   1.000
    Zr130   Zr   0.66665   0.05095   0.57488   1.000
    Zr131   Zr   0.66665   0.55096   0.57488   1.000
    Zr132   Zr   0.06284   0.02129   0.57223   1.000
    Zr133   Zr   0.06285   0.52127   0.57221   1.000
    Zr134   Zr   0.56284   0.02129   0.57223   1.000
    Zr135   Zr   0.56285   0.52127   0.57221   1.000
    Zr136   Zr   0.18914   0.48051   0.90637   1.000
    Zr137   Zr   0.18910   0.98066   0.90640   1.000
    Zr138   Zr   0.68915   0.48051   0.90637   1.000
    Zr139   Zr   0.68910   0.98066   0.90640   1.000
    Zr140   Zr   0.08625   0.44879   0.90290   1.000
    Zr141   Zr   0.08627   0.94881   0.90294   1.000
    Zr142   Zr   0.58625   0.44879   0.90290   1.000
    Zr143   Zr   0.58627   0.94881   0.90294   1.000
    Zr144   Zr   0.08803   0.12048   0.48580   1.000
    Zr145   Zr   0.08803   0.62049   0.48585   1.000
    Zr146   Zr   0.58803   0.12048   0.48580   1.000
    Zr147   Zr   0.58803   0.62049   0.48585   1.000
    Zr148   Zr   0.02806   0.18960   0.52221   1.000
    Zr149   Zr   0.02805   0.68960   0.52221   1.000
    Zr150   Zr   0.52806   0.18960   0.52221   1.000
    Zr151   Zr   0.52805   0.68960   0.52221   1.000
    Zr152   Zr   0.08313   0.44898   0.07489   1.000
    Zr153   Zr   0.08313   0.94899   0.07489   1.000
    Zr154   Zr   0.58313   0.44899   0.07480   1.000
    Zr155   Zr   0.58313   0.94899   0.07489   1.000
    Zr156   Zr   0.18677   0.47896   0.07208   1.000
    Zr157   Zr   0.18677   0.97896   0.07208   1.000
    Zr158   Zr   0.68677   0.47896   0.07208   1.000
    Zr159   Zr   0.68677   0.97896   0.07208   1.000
    Zr160   Zr   0.06104   0.01898   0.40664   1.000
    Zr161   Zr   0.06104   0.51899   0.40663   1.000
    Zr162   Zr   0.56104   0.01898   0.40664   1.000
    Zr163   Zr   0.56104   0.51899   0.40663   1.000
    Zr164   Zr   0.16371   0.05118   0.40294   1.000
    Zr165   Zr   0.16371   0.55119   0.40294   1.000
    Zr166   Zr   0.66371   0.05118   0.40294   1.000
    Zr167   Zr   0.66371   0.55119   0.40294   1.000
    Zr168   Zr   0.16201   0.37950   0.98583   1.000
    Zr169   Zr   0.16201   0.87952   0.98581   1.000
    Zr170   Zr   0.66201   0.37950   0.98583   1.000
    Zr171   Zr   0.66201   0.87952   0.98581   1.000
    Zr172   Zr   0.22195   0.31041   0.02219   1.000
    Zr173   Zr   0.22195   0.81042   0.02220   1.000
    Zr174   Zr   0.72195   0.31041   0.02219   1.000
    Zr175   Zr   0.72195   0.81042   0.02220   1.000
    O176    O    0.69548   0.82157   0.01620   1.000
    O177    O    0.66551   0.85611   0.99800   1.000
    O178    O    0.19547   0.82157   0.01620   1.000
    O179    O    0.16551   0.85611   0.99800   1.000
    O180    O    0.69548   0.32155   0.01622   1.000
    O181    O    0.66551   0.35610   0.99804   1.000
    O182    O    0.19548   0.32155   0.01622   1.000
    O183    O    0.16551   0.35610   0.99804   1.000
    O184    O    0.43916   0.83695   0.01271   1.000
    O185    O    0.45259   0.78623   0.05229   1.000
    O186    O    0.45153   0.78731   0.96954   1.000
    O187    O    0.43916   0.33694   0.01271   1.000
    O188    O    0.45259   0.28622   0.05229   1.000
    O189    O    0.45153   0.28730   0.96954   1.000
    O190    O    0.93916   0.33694   0.01271   1.000
    O191    O    0.95259   0.28623   0.05229   1.000
    O192    O    0.95153   0.28730   0.96954   1.000
    O193    O    0.93916   0.83695   0.01271   1.000
    O194    O    0.95259   0.78623   0.05229   1.000
    O195    O    0.95153   0.78731   0.96954   1.000
    O196    O    0.26804   0.82434   0.01671   1.000
    O197    O    0.32519   0.81971   0.05416   1.000
    O198    O    0.32364   0.81969   0.96818   1.000
    O199    O    0.76804   0.82434   0.01671   1.000
    O200    O    0.82519   0.81971   0.05416   1.000
    O201    O    0.82365   0.81969   0.96818   1.000
    O202    O    0.76805   0.32433   0.01671   1.000
    O203    O    0.82520   0.31970   0.05416   1.000
    O204    O    0.82365   0.31968   0.96819   1.000
    O205    O    0.26805   0.32433   0.01671   1.000
    O206    O    0.32520   0.31970   0.05416   1.000
    O207    O    0.32365   0.31968   0.96819   1.000
    O208    O    0.41555   0.39391   0.00216   1.000
    O209    O    0.41554   0.89391   0.00211   1.000
    O210    O    0.91555   0.39391   0.00216   1.000
    O211    O    0.91554   0.89391   0.00216   1.000
    O212    O    0.65974   0.97457   0.08645   1.000
    O213    O    0.70155   0.96276   0.03048   1.000
    O214    O    0.65974   0.47457   0.08645   1.000
    O215    O    0.70156   0.46275   0.03049   1.000
    O216    O    0.15974   0.97457   0.08645   1.000
    O217    O    0.20155   0.96276   0.03048   1.000
    O218    O    0.15974   0.47457   0.08645   1.000
    O219    O    0.20156   0.46275   0.03049   1.000
    O220    O    0.60792   0.45959   0.08781   1.000
    O221    O    0.57365   0.43040   0.03183   1.000
    O222    O    0.10792   0.45959   0.08786   1.000
    O223    O    0.07365   0.43040   0.03188   1.000
    O224    O    0.10792   0.95959   0.08786   1.000
    O225    O    0.07365   0.93041   0.03188   1.000
    O226    O    0.60792   0.95959   0.08786   1.000
    O227    O    0.57365   0.93041   0.03188   1.000
    O228    O    0.91202   0.77399   0.10799   1.000
    O229    O    0.91202   0.27398   0.10800   1.000
    O230    O    0.41202   0.77399   0.10799   1.000
    O231    O    0.41202   0.27398   0.10800   1.000
    O232    O    0.86069   0.29005   0.10984   1.000
    O233    O    0.36069   0.29005   0.10984   1.000
    O234    O    0.36069   0.79005   0.10984   1.000
    O235    O    0.86069   0.79005   0.10984   1.000
    O236    O    0.63925   0.54007   0.39018   1.000
    O237    O    0.58792   0.52397   0.39203   1.000
    O238    O    0.63926   0.04006   0.39018   1.000
    O239    O    0.58792   0.02396   0.39203   1.000
    O240    O    0.13925   0.54007   0.39018   1.000
    O241    O    0.08792   0.52397   0.39203   1.000
    O242    O    0.13926   0.04006   0.39018   1.000
    O243    O    0.08792   0.02396   0.39203   1.000
    O244    O    0.89202   0.70959   0.41213   1.000
    O245    O    0.84018   0.72449   0.41352   1.000
    O246    O    0.89202   0.20958   0.41213   1.000
    O247    O    0.84018   0.22449   0.41352   1.000
    O248    O    0.39202   0.70959   0.41213   1.000
    O249    O    0.34018   0.72449   0.41352   1.000
    O250    O    0.39202   0.20958   0.41213   1.000
    O251    O    0.34018   0.22449   0.41352   1.000
    O252    O    0.67476   0.56968   0.44592   1.000
    O253    O    0.67476   0.06967   0.44547   1.000
    O254    O    0.17476   0.56968   0.44592   1.000
    O255    O    0.17476   0.06967   0.44547   1.000
    O256    O    0.54734   0.53623   0.44772   1.000
    O257    O    0.04734   0.53623   0.44772   1.000
    O258    O    0.54735   0.03622   0.44772   1.000
    O259    O    0.04735   0.03622   0.44772   1.000
    O260    O    0.42632   0.18043   0.46811   1.000
    O261    O    0.92632   0.68044   0.46811   1.000
    O262    O    0.92632   0.18043   0.46811   1.000
    O263    O    0.42632   0.68044   0.46811   1.000
    O264    O    0.79843   0.21269   0.46953   1.000
    O265    O    0.29843   0.21269   0.46953   1.000
    O266    O    0.29842   0.71270   0.46953   1.000
    O267    O    0.79842   0.71270   0.46953   1.000
    O268    O    0.23190   0.07428   0.48291   1.000
    O269    O    0.30447   0.07155   0.48376   1.000
    O270    O    0.23189   0.57429   0.48336   1.000
    O271    O    0.30447   0.57156   0.48377   1.000
    O272    O    0.73190   0.07428   0.48291   1.000
    O273    O    0.80447   0.07155   0.48376   1.000
    O274    O    0.73189   0.57429   0.48336   1.000
    O275    O    0.80447   0.57156   0.48377   1.000
    O276    O    0.56084   0.08697   0.48730   1.000
    O277    O    0.58452   0.14389   0.49805   1.000
    O278    O    0.06084   0.08697   0.48730   1.000
    O279    O    0.08452   0.14389   0.49805   1.000
    O280    O    0.56084   0.58698   0.48733   1.000
    O281    O    0.58452   0.64390   0.49807   1.000
    O282    O    0.06084   0.58698   0.48733   1.000
    O283    O    0.08452   0.64390   0.49807   1.000
    O284    O    0.67623   0.06956   0.53144   1.000
    O285    O    0.17623   0.06956   0.53144   1.000
    O286    O    0.54825   0.53737   0.53051   1.000
    O287    O    0.54825   0.03737   0.53052   1.000
    O288    O    0.04825   0.53737   0.53051   1.000
    O289    O    0.04825   0.03737   0.53052   1.000
    O290    O    0.67623   0.56957   0.53189   1.000
    O291    O    0.17623   0.56956   0.53189   1.000
    O292    O    0.83449   0.10612   0.50193   1.000
    O293    O    0.33449   0.10612   0.50193   1.000
    O294    O    0.83449   0.60612   0.50194   1.000
    O295    O    0.33449   0.60612   0.50194   1.000
    O296    O    0.05453   0.67846   0.51625   1.000
    O297    O    0.55453   0.67846   0.51625   1.000
    O298    O    0.55453   0.17845   0.51626   1.000
    O299    O    0.05453   0.17845   0.51626   1.000
    O300    O    0.98194   0.67573   0.51666   1.000
    O301    O    0.92478   0.68036   0.55409   1.000
    O302    O    0.98195   0.17572   0.51666   1.000
    O303    O    0.92478   0.18034   0.55405   1.000
    O304    O    0.48195   0.17572   0.51666   1.000
    O305    O    0.42478   0.18034   0.55409   1.000
    O306    O    0.48194   0.67573   0.51666   1.000
    O307    O    0.42478   0.68036   0.55409   1.000
    O308    O    0.31087   0.16305   0.51267   1.000
    O309    O    0.29741   0.21379   0.55229   1.000
    O310    O    0.31087   0.66305   0.51267   1.000
    O311    O    0.29741   0.71381   0.55229   1.000
    O312    O    0.81087   0.16305   0.51267   1.000
    O313    O    0.79741   0.21379   0.55209   1.000
    O314    O    0.81087   0.66305   0.51267   1.000
    O315    O    0.79741   0.71381   0.55229   1.000
    O316    O    0.08993   0.52557   0.58653   1.000
    O317    O    0.58993   0.52557   0.58653   1.000
    O318    O    0.58993   0.02559   0.58655   1.000
    O319    O    0.08993   0.02559   0.58655   1.000
    O320    O    0.14183   0.04042   0.58788   1.000
    O321    O    0.14183   0.54042   0.58787   1.000
    O322    O    0.64183   0.04042   0.58788   1.000
    O323    O    0.64183   0.54042   0.58787   1.000
    O324    O    0.83797   0.22607   0.60779   1.000
    O325    O    0.83798   0.72610   0.60797   1.000
    O326    O    0.33798   0.72610   0.60797   1.000
    O327    O    0.33797   0.22606   0.60799   1.000
    O328    O    0.88929   0.20997   0.60979   1.000
    O329    O    0.88929   0.71000   0.60981   1.000
    O330    O    0.38929   0.71000   0.60981   1.000
    O331    O    0.38929   0.20997   0.60983   1.000
    O332    O    0.11075   0.45980   0.89010   1.000
    O333    O    0.16220   0.47566   0.89184   1.000
    O334    O    0.61075   0.45980   0.89010   1.000
    O335    O    0.66220   0.47566   0.89184   1.000
    O336    O    0.11075   0.95985   0.89014   1.000
    O337    O    0.16217   0.97578   0.89187   1.000
    O338    O    0.61075   0.95985   0.89014   1.000
    O339    O    0.66217   0.97578   0.89187   1.000
    O340    O    0.35793   0.79055   0.91212   1.000
    O341    O    0.40974   0.77557   0.91349   1.000
    O342    O    0.85793   0.79055   0.91212   1.000
    O343    O    0.90974   0.77557   0.91349   1.000
    O344    O    0.35793   0.29052   0.91216   1.000
    O345    O    0.40974   0.27554   0.91354   1.000
    O346    O    0.85793   0.29053   0.91216   1.000
    O347    O    0.90974   0.27555   0.91354   1.000
    O348    O    0.07521   0.43030   0.94588   1.000
    O349    O    0.57521   0.43030   0.94588   1.000
    O350    O    0.07522   0.93032   0.94590   1.000
    O351    O    0.57522   0.93032   0.94590   1.000
    O352    O    0.20275   0.46353   0.94763   1.000
    O353    O    0.70275   0.46353   0.94763   1.000
    O354    O    0.20272   0.96361   0.94764   1.000
    O355    O    0.70272   0.96361   0.94764   1.000
    O356    O    0.51808   0.92572   0.98339   1.000
    O357    O    0.44553   0.92849   0.98395   1.000
    O358    O    0.01808   0.92572   0.98339   1.000
    O359    O    0.94553   0.92849   0.98400   1.000
    O360    O    0.51809   0.42571   0.98339   1.000
    O361    O    0.44553   0.42849   0.98401   1.000
    O362    O    0.01809   0.42571   0.98339   1.000
    O363    O    0.94554   0.42849   0.98401   1.000
    O364    O    0.68917   0.91304   0.98734   1.000
    O365    O    0.18917   0.91304   0.98734   1.000
    O366    O    0.68918   0.41302   0.98736   1.000
    O367    O    0.18918   0.41302   0.98736   1.000
    O368    O    0.36309   0.35435   0.01273   1.000
    O369    O    0.36309   0.85436   0.01273   1.000
    O370    O    0.86309   0.35435   0.01273   1.000
    O371    O    0.86309   0.85436   0.01273   1.000
    O372    O    0.38693   0.14569   0.51263   1.000
    O373    O    0.38692   0.64569   0.51263   1.000
    O374    O    0.88693   0.14569   0.51263   1.000
    O375    O    0.88692   0.64569   0.51263   1.000
    O376    O    0.13692   0.10432   0.48690   1.000
    O377    O    0.13692   0.60433   0.48737   1.000
    O378    O    0.63692   0.10432   0.48690   1.000
    O379    O    0.63692   0.60433   0.48737   1.000
    O380    O    0.11309   0.39566   0.98735   1.000
    O381    O    0.11309   0.89567   0.98734   1.000
    O382    O    0.61309   0.39566   0.98735   1.000
    O383    O    0.61309   0.89567   0.98734   1.000
    N384    N    0.09758   0.29448   0.07034   1.000
    O385    O    0.05341   0.30624   0.03917   1.000
    O386    O    0.07788   0.33334   0.03359   1.000
    O387    O    0.11772   0.30616   0.04445   1.000
    N388    N    0.62611   0.00059   0.73915   1.000
    O389    O    0.62275   0.01130   0.68783   1.000
    O390    O    0.62948   0.98976   0.79047   1.000
    N391    N    0.84746   0.45555   0.93044   1.000
    O392    O    0.86769   0.44391   0.95625   1.000
    O393    O    0.80340   0.44385   0.96164   1.000
    O394    O    0.82785   0.41678   0.96722   1.000
    N395    N    0.15234   0.70556   0.57044   1.000
    O396    O    0.13225   0.69387   0.54454   1.000
    O397    O    0.17208   0.66667   0.53370   1.000
    O398    O    0.19656   0.69377   0.53927   1.000
    N399    N    0.37378   0.25073   0.76083   1.000
    O400    O    0.37707   0.26141   0.81218   1.000
    O401    O    0.37049   0.23993   0.70950   1.000
    N402    N    0.87620   0.24939   0.26084   1.000
    O403    O    0.87290   0.23870   0.31219   1.000
    O404    O    0.87949   0.26017   0.20951   1.000
    N405    N    0.37620   0.24939   0.26084   1.000
    O406    O    0.37949   0.26017   0.20951   1.000
    O407    O    0.37290   0.23870   0.31219   1.000
    N408    N    0.12374   0.49941   0.23916   1.000
    O409    O    0.12044   0.51019   0.29050   1.000
    O410    O    0.12704   0.48874   0.18781   1.000
    N411    N    0.34745   0.95554   0.93042   1.000
    O412    O    0.36768   0.94391   0.95621   1.000
    O413    O    0.30339   0.94386   0.96163   1.000
    O414    O    0.32784   0.91678   0.96721   1.000
    N415    N    0.12374   0.99941   0.23917   1.000
    O416    O    0.12044   0.01018   0.29050   1.000
    O417    O    0.12704   0.98873   0.18782   1.000
    N418    N    0.09757   0.79458   0.07043   1.000
    O419    O    0.05340   0.80630   0.03922   1.000
    O420    O    0.07787   0.83340   0.03364   1.000
    O421    O    0.11771   0.80623   0.04450   1.000
    N422    N    0.59757   0.79458   0.07043   1.000
    O423    O    0.55340   0.80630   0.03922   1.000
    O424    O    0.57787   0.83340   0.03364   1.000
    O425    O    0.61771   0.80623   0.04450   1.000
    N426    N    0.59758   0.29448   0.07034   1.000
    O427    O    0.55341   0.30624   0.03917   1.000
    O428    O    0.57788   0.33334   0.03359   1.000
    O429    O    0.61772   0.30616   0.04445   1.000
    N430    N    0.37381   0.75082   0.76079   1.000
    O431    O    0.37709   0.76148   0.81214   1.000
    O432    O    0.37051   0.74001   0.70946   1.000
    N433    N    0.87378   0.25074   0.76082   1.000
    O434    O    0.87707   0.26141   0.81218   1.000
    O435    O    0.87049   0.23993   0.70949   1.000
    N436    N    0.62374   0.99941   0.23917   1.000
    O437    O    0.62044   0.01018   0.29050   1.000
    O438    O    0.62704   0.98873   0.18782   1.000
    N439    N    0.65235   0.20551   0.57049   1.000
    O440    O    0.69657   0.19374   0.53929   1.000
    O441    O    0.67209   0.16664   0.53350   1.000
    O442    O    0.63225   0.19383   0.54457   1.000
    N443    N    0.15235   0.20551   0.57049   1.000
    O444    O    0.13225   0.19383   0.54457   1.000
    O445    O    0.17209   0.16664   0.53350   1.000
    O446    O    0.19657   0.19374   0.53929   1.000
    N447    N    0.87381   0.75082   0.76079   1.000
    O448    O    0.87709   0.76148   0.81214   1.000
    O449    O    0.87051   0.74001   0.70946   1.000
    N450    N    0.12611   0.00059   0.73915   1.000
    O451    O    0.12948   0.98976   0.79047   1.000
    O452    O    0.12275   0.01130   0.68783   1.000
    N453    N    0.87619   0.74939   0.26084   1.000
    O454    O    0.87289   0.73871   0.31219   1.000
    O455    O    0.87949   0.76017   0.20951   1.000
    N456    N    0.62374   0.49941   0.23916   1.000
    O457    O    0.62044   0.51019   0.29050   1.000
    O458    O    0.62704   0.48874   0.18781   1.000
    N459    N    0.37619   0.74939   0.26084   1.000
    O460    O    0.37289   0.73871   0.31219   1.000
    O461    O    0.37949   0.76017   0.20951   1.000
    N462    N    0.65234   0.70556   0.57044   1.000
    O463    O    0.67208   0.66667   0.53370   1.000
    O464    O    0.69656   0.69377   0.53927   1.000
    O465    O    0.63225   0.69387   0.54454   1.000
    N466    N    0.90220   0.54448   0.42951   1.000
    O467    O    0.88214   0.55617   0.45544   1.000
    O468    O    0.92200   0.58336   0.46627   1.000
    O469    O    0.94646   0.55627   0.46070   1.000
    N470    N    0.90221   0.04448   0.42951   1.000
    O471    O    0.94646   0.05626   0.46069   1.000
    O472    O    0.92201   0.08336   0.46627   1.000
    O473    O    0.88214   0.05616   0.45543   1.000
    N474    N    0.40220   0.54448   0.42951   1.000
    O475    O    0.42200   0.58336   0.46627   1.000
    O476    O    0.44646   0.55627   0.46070   1.000
    O477    O    0.38214   0.55617   0.45544   1.000
    N478    N    0.12613   0.50051   0.73911   1.000
    O479    O    0.12277   0.51124   0.68779   1.000
    O480    O    0.12950   0.48967   0.79041   1.000
    N481    N    0.84745   0.95554   0.93043   1.000
    O482    O    0.80339   0.94386   0.96163   1.000
    O483    O    0.82784   0.91678   0.96722   1.000
    O484    O    0.86768   0.94391   0.95624   1.000
    N485    N    0.62613   0.50051   0.73911   1.000
    O486    O    0.62950   0.48967   0.79041   1.000
    O487    O    0.62277   0.51124   0.68779   1.000
    N488    N    0.34746   0.45555   0.93044   1.000
    O489    O    0.30340   0.44385   0.96164   1.000
    O490    O    0.32785   0.41678   0.96722   1.000
    O491    O    0.36769   0.44391   0.95625   1.000
    N492    N    0.40220   0.04448   0.42951   1.000
    O493    O    0.42201   0.08336   0.46627   1.000
    O494    O    0.44646   0.05626   0.46069   1.000
    O495    O    0.38214   0.05616   0.45543   1.000
loop_
    _geom_bond_atom_site_label_1
    _geom_bond_atom_site_label_2
    _geom_bond_distance
    _geom_bond_site_symmetry_2
    _ccdc_geom_bond_type
    Zr79   O176      0.62857      .   S
    Zr175  O176      0.62857      .   S
    Zr79   O177      0.64191  1_554   S
    Zr171  O177      0.64191      .   S
    Zr77   O178      0.62857      .   S
    Zr173  O178      0.62857      .   S
    Zr77   O179      0.64191  1_554   S
    Zr169  O179      0.64191      .   S
    Zr78   O180      0.62842      .   S
    Zr174  O180      0.62842      .   S
    Zr78   O181      0.64218  1_554   S
    Zr170  O181      0.64218      .   S
    Zr76   O182      0.62841      .   S
    Zr172  O182      0.62841      .   S
    Zr76   O183      0.64218  1_554   S
    Zr168  O183      0.64218      .   S
    Zr1    O184      1.01354      .   S
    Zr97   O184      1.01354      .   S
    Zr1    O185      0.97901      .   S
    Zr113  O185      0.97901      .   S
    Zr1    O186      0.98330  1_554   S
    Zr85   O186      0.98330      .   S
    Zr0    O187      1.01351      .   S
    Zr96   O187      1.01351      .   S
    Zr0    O188      0.97899      .   S
    Zr112  O188      0.97899      .   S
    Zr0    O189      0.98328  1_554   S
    Zr84   O189      0.98328      .   S
    Zr2    O190      1.01351      .   S
    Zr98   O190      1.01351      .   S
    Zr2    O191      0.97898      .   S
    Zr114  O191      0.97898      .   S
    Zr2    O192      0.98328  1_554   S
    Zr86   O192      0.98328      .   S
    Zr3    O193      1.01354      .   S
    Zr99   O193      1.01354      .   S
    Zr3    O194      0.97901      .   S
    Zr115  O194      0.97901      .   S
    Zr3    O195      0.98330  1_554   S
    Zr87   O195      0.98330      .   S
    Zr5    O196      1.02426      .   S
    Zr173  O196      1.02426      .   S
    Zr5    O197      1.01182      .   S
    Zr117  O197      1.01182      .   S
    Zr5    O198      1.00676  1_554   S
    Zr81   O198      1.00676      .   S
    Zr7    O199      1.02426      .   S
    Zr175  O199      1.02426      .   S
    Zr7    O200      1.01183      .   S
    Zr119  O200      1.01183      .   S
    Zr7    O201      1.00677  1_554   S
    Zr83   O201      1.00677      .   S
    Zr6    O202      1.02426      .   S
    Zr174  O202      1.02426      .   S
    Zr6    O203      1.01182      .   S
    Zr118  O203      1.01182      .   S
    Zr6    O204      1.00670  1_554   S
    Zr82   O204      1.00670      .   S
    Zr4    O205      1.02427      .   S
    Zr172  O205      1.02427      .   S
    Zr4    O206      1.01182      .   S
    Zr116  O206      1.01182      .   S
    Zr4    O207      1.00670  1_554   S
    Zr80   O207      1.00670      .   S
    Zr96   O208      0.64214      .   S
    Zr40   O208      0.64214  1_556   S
    Zr97   O209      0.64250      .   S
    Zr41   O209      0.64250  1_556   S
    Zr98   O210      0.64214      .   S
    Zr42   O210      0.64214  1_556   S
    Zr99   O211      0.64215      .   S
    Zr43   O211      0.64215  1_556   S
    Zr159  O212      0.64116      .   S
    Zr71   O212      0.64116      .   S
    Zr159  O213      0.98333      .   S
    Zr27   O213      0.98333  1_556   S
    Zr158  O214      0.64116      .   S
    Zr70   O214      0.64116      .   S
    Zr158  O215      0.98337      .   S
    Zr26   O215      0.98337  1_556   S
    Zr157  O216      0.64116      .   S
    Zr69   O216      0.64116      .   S
    Zr157  O217      0.98333      .   S
    Zr25   O217      0.98333  1_556   S
    Zr156  O218      0.64116      .   S
    Zr68   O218      0.64116      .   S
    Zr156  O219      0.98336      .   S
    Zr24   O219      0.98336  1_556   S
    Zr154  O220      0.63605      .   S
    Zr70   O220      0.63605      .   S
    Zr154  O221      1.00552      .   S
    Zr30   O221      1.00552  1_556   S
    Zr152  O222      0.63567      .   S
    Zr68   O222      0.63567      .   S
    Zr152  O223      1.00630      .   S
    Zr28   O223      1.00630  1_556   S
    Zr153  O224      0.63566      .   S
    Zr69   O224      0.63566      .   S
    Zr153  O225      1.00628      .   S
    Zr29   O225      1.00628  1_556   S
    Zr155  O226      0.63566      .   S
    Zr71   O226      0.63566      .   S
    Zr155  O227      1.00628      .   S
    Zr31   O227      1.00628  1_556   S
    Zr115  O228      0.64327      .   S
    Zr51   O228      0.64327      .   S
    Zr114  O229      0.64333      .   S
    Zr50   O229      0.64333      .   S
    Zr113  O230      0.64328      .   S
    Zr49   O230      0.64328      .   S
    Zr112  O231      0.64332      .   S
    Zr48   O231      0.64332      .   S
    Zr118  O232      0.63395      .   S
    Zr50   O232      0.63395      .   S
    Zr116  O233      0.63395      .   S
    Zr48   O233      0.63395      .   S
    Zr117  O234      0.63392      .   S
    Zr49   O234      0.63392      .   S
    Zr119  O235      0.63391      .   S
    Zr51   O235      0.63391      .   S
    Zr75   O236      0.63396      .   S
    Zr167  O236      0.63396      .   S
    Zr75   O237      0.64322      .   S
    Zr163  O237      0.64322      .   S
    Zr74   O238      0.63396      .   S
    Zr166  O238      0.63396      .   S
    Zr74   O239      0.64325      .   S
    Zr162  O239      0.64325      .   S
    Zr73   O240      0.63396      .   S
    Zr165  O240      0.63396      .   S
    Zr73   O241      0.64323      .   S
    Zr161  O241      0.64323      .   S
    Zr72   O242      0.63396      .   S
    Zr164  O242      0.63396      .   S
    Zr72   O243      0.64326      .   S
    Zr160  O243      0.64326      .   S
    Zr47   O244      0.63566      .   S
    Zr107  O244      0.63566      .   S
    Zr47   O245      0.64132      .   S
    Zr111  O245      0.64132      .   S
    Zr46   O246      0.63568      .   S
    Zr106  O246      0.63568      .   S
    Zr46   O247      0.64133      .   S
    Zr110  O247      0.64133      .   S
    Zr45   O248      0.63567      .   S
    Zr105  O248      0.63567      .   S
    Zr45   O249      0.64133      .   S
    Zr109  O249      0.64133      .   S
    Zr44   O250      0.63567      .   S
    Zr104  O250      0.63567      .   S
    Zr44   O251      0.64133      .   S
    Zr108  O251      0.64133      .   S
    Zr167  O252      1.01151      .   S
    Zr23   O252      1.01151      .   S
    Zr166  O253      1.00373      .   S
    Zr22   O253      1.00373      .   S
    Zr165  O254      1.01151      .   S
    Zr21   O254      1.01151      .   S
    Zr164  O255      1.00373      .   S
    Zr20   O255      1.00373      .   S
    Zr163  O256      0.97889      .   S
    Zr19   O256      0.97889      .   S
    Zr161  O257      0.97889      .   S
    Zr17   O257      0.97889      .   S
    Zr162  O258      0.97884      .   S
    Zr18   O258      0.97884      .   S
    Zr160  O259      0.97883      .   S
    Zr16   O259      0.97883      .   S
    Zr104  O260      1.00672      .   S
    Zr12   O260      1.00672      .   S
    Zr107  O261      1.00671      .   S
    Zr15   O261      1.00671      .   S
    Zr106  O262      1.00671      .   S
    Zr14   O262      1.00671      .   S
    Zr105  O263      1.00671      .   S
    Zr13   O263      1.00671      .   S
    Zr110  O264      0.98323      .   S
    Zr10   O264      0.98323      .   S
    Zr108  O265      0.98323      .   S
    Zr8    O265      0.98323      .   S
    Zr109  O266      0.98322      .   S
    Zr9    O266      0.98322      .   S
    Zr111  O267      0.98323      .   S
    Zr11   O267      0.98323      .   S
    Zr124  O268      1.02322      .   S
    Zr20   O268      1.02322      .   S
    Zr124  O269      0.62840      .   S
    Zr52   O269      0.62840      .   S
    Zr125  O270      1.02417      .   S
    Zr21   O270      1.02417      .   S
    Zr125  O271      0.62841      .   S
    Zr53   O271      0.62841      .   S
    Zr126  O272      1.02322      .   S
    Zr22   O272      1.02322      .   S
    Zr126  O273      0.62839      .   S
    Zr54   O273      0.62839      .   S
    Zr127  O274      1.02417      .   S
    Zr23   O274      1.02417      .   S
    Zr127  O275      0.62841      .   S
    Zr55   O275      0.62841      .   S
    Zr146  O276      1.01382      .   S
    Zr18   O276      1.01382      .   S
    Zr146  O277      0.64242      .   S
    Zr66   O277      0.64242      .   S
    Zr144  O278      1.01382      .   S
    Zr16   O278      1.01382      .   S
    Zr144  O279      0.64242      .   S
    Zr64   O279      0.64242      .   S
    Zr147  O280      1.01380      .   S
    Zr19   O280      1.01380      .   S
    Zr147  O281      0.64223      .   S
    Zr67   O281      0.64223      .   S
    Zr145  O282      1.01380      .   S
    Zr17   O282      1.01380      .   S
    Zr145  O283      0.64223      .   S
    Zr65   O283      0.64223      .   S
    Zr22   O284      1.01468      .   S
    Zr130  O284      1.01468      .   S
    Zr20   O285      1.01468      .   S
    Zr128  O285      1.01468      .   S
    Zr19   O286      0.98323      .   S
    Zr135  O286      0.98323      .   S
    Zr18   O287      0.98323      .   S
    Zr134  O287      0.98323      .   S
    Zr17   O288      0.98323      .   S
    Zr133  O288      0.98323      .   S
    Zr16   O289      0.98323      .   S
    Zr132  O289      0.98323      .   S
    Zr23   O290      1.00681      .   S
    Zr131  O290      1.00681      .   S
    Zr21   O291      1.00682      .   S
    Zr129  O291      1.00682      .   S
    Zr54   O292      0.64224      .   S
    Zr122  O292      0.64224      .   S
    Zr52   O293      0.64224      .   S
    Zr120  O293      0.64224      .   S
    Zr55   O294      0.64220      .   S
    Zr123  O294      0.64220      .   S
    Zr53   O295      0.64220      .   S
    Zr121  O295      0.64220      .   S
    Zr65   O296      0.62842      .   S
    Zr149  O296      0.62842      .   S
    Zr67   O297      0.62842      .   S
    Zr151  O297      0.62842      .   S
    Zr66   O298      0.62840      .   S
    Zr150  O298      0.62840      .   S
    Zr64   O299      0.62840      .   S
    Zr148  O299      0.62840      .   S
    Zr15   O300      1.02429      .   S
    Zr149  O300      1.02429  1_455   S
    Zr15   O301      1.01175      .   S
    Zr95   O301      1.01175      .   S
    Zr14   O302      1.02429      .   S
    Zr148  O302      1.02429  1_455   S
    Zr14   O303      1.01110      .   S
    Zr94   O303      1.01110      .   S
    Zr12   O304      1.02429      .   S
    Zr150  O304      1.02429      .   S
    Zr12   O305      1.01179      .   S
    Zr92   O305      1.01179      .   S
    Zr13   O306      1.02429      .   S
    Zr151  O306      1.02429      .   S
    Zr13   O307      1.01175      .   S
    Zr93   O307      1.01175      .   S
    Zr8    O308      1.01394      .   S
    Zr120  O308      1.01394      .   S
    Zr8    O309      0.97902      .   S
    Zr88   O309      0.97902      .   S
    Zr9    O310      1.01394      .   S
    Zr121  O310      1.01394      .   S
    Zr9    O311      0.97902      .   S
    Zr89   O311      0.97902      .   S
    Zr10   O312      1.01394      .   S
    Zr122  O312      1.01394      .   S
    Zr10   O313      0.97561      .   S
    Zr90   O313      0.97561      .   S
    Zr11   O314      1.01394      .   S
    Zr123  O314      1.01394      .   S
    Zr11   O315      0.97902      .   S
    Zr91   O315      0.97902      .   S
    Zr133  O316      0.64136      .   S
    Zr57   O316      0.64136      .   S
    Zr135  O317      0.64136      .   S
    Zr59   O317      0.64136      .   S
    Zr134  O318      0.64138      .   S
    Zr58   O318      0.64138      .   S
    Zr132  O319      0.64139      .   S
    Zr56   O319      0.64139      .   S
    Zr128  O320      0.63572      .   S
    Zr56   O320      0.63572      .   S
    Zr129  O321      0.63570      .   S
    Zr57   O321      0.63570      .   S
    Zr130  O322      0.63573      .   S
    Zr58   O322      0.63573      .   S
    Zr131  O323      0.63571      .   S
    Zr59   O323      0.63571      .   S
    Zr90   O324      0.64511      .   S
    Zr38   O324      0.64511      .   S
    Zr91   O325      0.64323      .   S
    Zr39   O325      0.64323      .   S
    Zr89   O326      0.64323      .   S
    Zr37   O326      0.64323      .   S
    Zr88   O327      0.64323      .   S
    Zr36   O327      0.64323      .   S
    Zr94   O328      0.63429      .   S
    Zr38   O328      0.63429      .   S
    Zr95   O329      0.63398      .   S
    Zr39   O329      0.63398      .   S
    Zr93   O330      0.63398      .   S
    Zr37   O330      0.63398      .   S
    Zr92   O331      0.63397      .   S
    Zr36   O331      0.63397      .   S
    Zr60   O332      0.63379      .   S
    Zr140  O332      0.63379      .   S
    Zr60   O333      0.64326      .   S
    Zr136  O333      0.64326      .   S
    Zr62   O334      0.63378      .   S
    Zr142  O334      0.63378      .   S
    Zr62   O335      0.64327      .   S
    Zr138  O335      0.64327      .   S
    Zr61   O336      0.63394      .   S
    Zr141  O336      0.63394      .   S
    Zr61   O337      0.64311      .   S
    Zr137  O337      0.64311      .   S
    Zr63   O338      0.63393      .   S
    Zr143  O338      0.63393      .   S
    Zr63   O339      0.64311      .   S
    Zr139  O339      0.64311      .   S
    Zr33   O340      0.63601      .   S
    Zr81   O340      0.63601      .   S
    Zr33   O341      0.64153      .   S
    Zr85   O341      0.64153      .   S
    Zr35   O342      0.63601      .   S
    Zr83   O342      0.63601      .   S
    Zr35   O343      0.64153      .   S
    Zr87   O343      0.64153      .   S
    Zr32   O344      0.63577      .   S
    Zr80   O344      0.63577      .   S
    Zr32   O345      0.64124      .   S
    Zr84   O345      0.64124      .   S
    Zr34   O346      0.63576      .   S
    Zr82   O346      0.63576      .   S
    Zr34   O347      0.64124      .   S
    Zr86   O347      0.64124      .   S
    Zr140  O348      1.01180      .   S
    Zr28   O348      1.01180      .   S
    Zr142  O349      1.01181      .   S
    Zr30   O349      1.01181      .   S
    Zr141  O350      1.01154      .   S
    Zr29   O350      1.01154      .   S
    Zr143  O351      1.01155      .   S
    Zr31   O351      1.01155      .   S
    Zr136  O352      0.97886      .   S
    Zr24   O352      0.97886      .   S
    Zr138  O353      0.97886      .   S
    Zr26   O353      0.97886      .   S
    Zr137  O354      0.97933      .   S
    Zr25   O354      0.97933      .   S
    Zr139  O355      0.97933      .   S
    Zr27   O355      0.97933      .   S
    Zr101  O356      1.02420      .   S
    Zr31   O356      1.02420      .   S
    Zr101  O357      0.62820      .   S
    Zr41   O357      0.62820      .   S
    Zr103  O358      1.02419  1_655   S
    Zr29   O358      1.02419      .   S
    Zr103  O359      0.62837      .   S
    Zr43   O359      0.62837      .   S
    Zr100  O360      1.02418      .   S
    Zr30   O360      1.02418      .   S
    Zr100  O361      0.62836      .   S
    Zr40   O361      0.62836      .   S
    Zr102  O362      1.02417  1_655   S
    Zr28   O362      1.02417      .   S
    Zr102  O363      0.62837      .   S
    Zr42   O363      0.62837      .   S
    Zr171  O364      1.01375      .   S
    Zr27   O364      1.01375      .   S
    Zr169  O365      1.01375      .   S
    Zr25   O365      1.01375      .   S
    Zr170  O366      1.01373      .   S
    Zr26   O366      1.01373      .   S
    Zr168  O367      1.01373      .   S
    Zr24   O367      1.01373      .   S
    Zr96   O368      1.09337      .   S
    Zr4    O368      1.09337      .   S
    Zr97   O369      1.09335      .   S
    Zr5    O369      1.09335      .   S
    Zr98   O370      1.09338      .   S
    Zr6    O370      1.09338      .   S
    Zr99   O371      1.09335      .   S
    Zr7    O371      1.09335      .   S
    Zr120  O372      1.09325      .   S
    Zr12   O372      1.09325      .   S
    Zr121  O373      1.09324      .   S
    Zr13   O373      1.09324      .   S
    Zr122  O374      1.09324      .   S
    Zr14   O374      1.09324      .   S
    Zr123  O375      1.09324      .   S
    Zr15   O375      1.09324      .   S
    Zr144  O376      1.09322      .   S
    Zr20   O376      1.09322      .   S
    Zr145  O377      1.09341      .   S
    Zr21   O377      1.09341      .   S
    Zr146  O378      1.09323      .   S
    Zr22   O378      1.09323      .   S
    Zr147  O379      1.09341      .   S
    Zr23   O379      1.09341      .   S
    Zr168  O380      1.09388      .   S
    Zr28   O380      1.09388      .   S
    Zr169  O381      1.09397      .   S
    Zr29   O381      1.09397      .   S
    Zr170  O382      1.09389      .   S
    Zr30   O382      1.09389      .   S
    Zr171  O383      1.09396      .   S
    Zr31   O383      1.09396      .   S
    N384   O385      1.15127      .   S
    Zr2    O385      1.89561  1_655   S
    N384   O386      1.29379      .   S
    Zr28   O386      2.18836  1_556   S
    N384   O387      0.73113      .   S
    Zr76   O387      1.43317      .   S
    N388   O389      1.07448      .   S
    Zr58   O389      1.82307      .   S
    N388   O390      1.07493  1_545   S
    Zr63   O390      1.82353      .   S
    N391   O392      0.73099      .   S
    Zr42   O392      1.43218      .   S
    N391   O393      1.14886      .   S
    Zr26   O393      1.88956      .   S
    N391   O394      1.29141      .   S
    Zr6    O394      2.18330  1_554   S
    N395   O396      0.73105      .   S
    Zr65   O396      1.43306      .   S
    N395   O397      1.29413      .   S
    Zr21   O397      2.18891      .   S
    N395   O398      1.15190      .   S
    Zr9    O398      1.89674      .   S
    N399   O400      1.07447      .   S
    Zr32   O400      1.82306      .   S
    N399   O401      1.07478      .   S
    Zr36   O401      1.82340      .   S
    N402   O403      1.07452      .   S
    Zr46   O403      1.82309      .   S
    N402   O404      1.07482      .   S
    Zr50   O404      1.82341      .   S
    N405   O406      1.07482      .   S
    Zr48   O406      1.82342      .   S
    N405   O407      1.07452      .   S
    Zr44   O407      1.82309      .   S
    N408   O409      1.07470      .   S
    Zr73   O409      1.82331      .   S
    N408   O410      1.07440      .   S
    Zr68   O410      1.82289      .   S
    N411   O412      0.73066      .   S
    Zr41   O412      1.43150      .   S
    N411   O413      1.14882      .   S
    Zr25   O413      1.88955      .   S
    N411   O414      1.29133      .   S
    Zr5    O414      2.18325  1_554   S
    N415   O416      1.07468  1_565   S
    Zr72   O416      1.82321      .   S
    N415   O417      1.07440      .   S
    Zr69   O417      1.82298      .   S
    N418   O419      1.15139      .   S
    Zr3    O419      1.89587  1_655   S
    N418   O420      1.29340      .   S
    Zr29   O420      2.18768  1_556   S
    N418   O421      0.73140      .   S
    Zr77   O421      1.43371      .   S
    N422   O423      1.15139      .   S
    Zr1    O423      1.89587      .   S
    N422   O424      1.29340      .   S
    Zr31   O424      2.18768  1_556   S
    N422   O425      0.73140      .   S
    Zr79   O425      1.43370      .   S
    N426   O427      1.15127      .   S
    Zr0    O427      1.89561      .   S
    N426   O428      1.29379      .   S
    Zr30   O428      2.18835  1_556   S
    N426   O429      0.73113      .   S
    Zr78   O429      1.43317      .   S
    N430   O431      1.07421      .   S
    Zr33   O431      1.82218      .   S
    N430   O432      1.07483      .   S
    Zr37   O432      1.82332      .   S
    N433   O434      1.07454      .   S
    Zr34   O434      1.82312      .   S
    N433   O435      1.07472      .   S
    Zr38   O435      1.82336      .   S
    N436   O437      1.07468  1_565   S
    Zr74   O437      1.82321      .   S
    N436   O438      1.07440      .   S
    Zr71   O438      1.82298      .   S
    N439   O440      1.15200      .   S
    Zr10   O440      1.89688      .   S
    N439   O441      1.29658      .   S
    Zr22   O441      2.19427      .   S
    N439   O442      0.73106      .   S
    Zr66   O442      1.43307      .   S
    N443   O444      0.73106      .   S
    Zr64   O444      1.43307      .   S
    N443   O445      1.29658      .   S
    Zr20   O445      2.19426      .   S
    N443   O446      1.15200      .   S
    Zr8    O446      1.89688      .   S
    N447   O448      1.07421      .   S
    Zr35   O448      1.82217      .   S
    N447   O449      1.07483      .   S
    Zr39   O449      1.82332      .   S
    N450   O451      1.07493  1_545   S
    Zr61   O451      1.82353      .   S
    N450   O452      1.07448      .   S
    Zr56   O452      1.82307      .   S
    N453   O454      1.07455      .   S
    Zr47   O454      1.82312      .   S
    N453   O455      1.07485      .   S
    Zr51   O455      1.82355      .   S
    N456   O457      1.07471      .   S
    Zr75   O457      1.82332      .   S
    N456   O458      1.07441      .   S
    Zr70   O458      1.82290      .   S
    N459   O460      1.07455      .   S
    Zr45   O460      1.82311      .   S
    N459   O461      1.07485      .   S
    Zr49   O461      1.82354      .   S
    N462   O463      1.29413      .   S
    Zr23   O463      2.18890      .   S
    N462   O464      1.15190      .   S
    Zr11   O464      1.89673      .   S
    N462   O465      0.73104      .   S
    Zr67   O465      1.43306      .   S
    N466   O467      0.73090      .   S
    Zr55   O467      1.43290      .   S
    N466   O468      1.29424      .   S
    Zr15   O468      2.18898      .   S
    N466   O469      1.15257      .   S
    Zr17   O469      1.89792  1_455   S
    N470   O471      1.15253      .   S
    Zr16   O471      1.89788  1_455   S
    N470   O472      1.29417      .   S
    Zr14   O472      2.18890      .   S
    N470   O473      0.73092      .   S
    Zr54   O473      1.43281      .   S
    N474   O475      1.29425      .   S
    Zr13   O475      2.18898      .   S
    N474   O476      1.15258      .   S
    Zr19   O476      1.89792      .   S
    N474   O477      0.73090      .   S
    Zr53   O477      1.43290      .   S
    N478   O479      1.07444      .   S
    Zr57   O479      1.82305      .   S
    N478   O480      1.07468      .   S
    Zr60   O480      1.82393      .   S
    N481   O482      1.14877      .   S
    Zr27   O482      1.88953      .   S
    N481   O483      1.29128      .   S
    Zr7    O483      2.18321  1_554   S
    N481   O484      0.73092      .   S
    Zr43   O484      1.43210      .   S
    N485   O486      1.07465      .   S
    Zr62   O486      1.82390      .   S
    N485   O487      1.07447      .   S
    Zr59   O487      1.82307      .   S
    N488   O489      1.14886      .   S
    Zr24   O489      1.88956      .   S
    N488   O490      1.29140      .   S
    Zr4    O490      2.18329  1_554   S
    N488   O491      0.73098      .   S
    Zr40   O491      1.43218      .   S
    N492   O493      1.29417      .   S
    Zr12   O493      2.18891      .   S
    N492   O494      1.15253      .   S
    Zr18   O494      1.89789      .   S
    N492   O495      0.73091      .   S
    Zr52   O495      1.43280      .   S
