# CIF file generated by openbabel 2.4.90, see http://openbabel.sf.net
data_I
_chemical_name_common ''
_cell_length_a 20.75
_cell_length_b 25.128
_cell_length_c 20.218
_cell_angle_alpha 90.024
_cell_angle_beta 89.988
_cell_angle_gamma 90.036
_space_group_name_H-M_alt 'P 1'
_space_group_name_Hall 'P 1'
loop_
    _symmetry_equiv_pos_as_xyz
    x,y,z
loop_
    _atom_site_label
    _atom_site_type_symbol
    _atom_site_fract_x
    _atom_site_fract_y
    _atom_site_fract_z
    _atom_site_occupancy
    Zr0     Zr   0.46629   0.30343   0.01119   1.000
    Zr1     Zr   0.46628   0.80344   0.01119   1.000
    Zr2     Zr   0.96629   0.30343   0.01119   1.000
    Zr3     Zr   0.96628   0.80344   0.01119   1.000
    Zr4     Zr   0.31415   0.33825   0.01123   1.000
    Zr5     Zr   0.31414   0.83826   0.01123   1.000
    Zr6     Zr   0.81415   0.33825   0.01123   1.000
    Zr7     Zr   0.81414   0.83826   0.01123   1.000
    Zr8     Zr   0.28372   0.19656   0.51119   1.000
    Zr9     Zr   0.28372   0.69657   0.51119   1.000
    Zr10    Zr   0.78372   0.19656   0.51119   1.000
    Zr11    Zr   0.78372   0.69657   0.51119   1.000
    Zr12    Zr   0.43584   0.16184   0.51111   1.000
    Zr13    Zr   0.43583   0.66185   0.51111   1.000
    Zr14    Zr   0.93584   0.16184   0.51111   1.000
    Zr15    Zr   0.93583   0.66185   0.51111   1.000
    Zr16    Zr   0.03365   0.05346   0.48881   1.000
    Zr17    Zr   0.03365   0.55346   0.48881   1.000
    Zr18    Zr   0.53365   0.05346   0.48881   1.000
    Zr19    Zr   0.53365   0.55346   0.48881   1.000
    Zr20    Zr   0.18581   0.08816   0.48800   1.000
    Zr21    Zr   0.18581   0.58817   0.48890   1.000
    Zr22    Zr   0.68581   0.08816   0.48800   1.000
    Zr23    Zr   0.68581   0.58817   0.48890   1.000
    Zr24    Zr   0.21635   0.44654   0.98889   1.000
    Zr25    Zr   0.21634   0.94656   0.98888   1.000
    Zr26    Zr   0.71635   0.44654   0.98889   1.000
    Zr27    Zr   0.71634   0.94656   0.98888   1.000
    Zr28    Zr   0.06417   0.41181   0.98887   1.000
    Zr29    Zr   0.06416   0.91182   0.98887   1.000
    Zr30    Zr   0.56417   0.41181   0.98887   1.000
    Zr31    Zr   0.56416   0.91182   0.98887   1.000
    N32     N    0.09758   0.29448   0.07034   1.000
    O33     O    0.05341   0.30624   0.03917   1.000
    O34     O    0.07788   0.33334   0.03359   1.000
    N35     N    0.62611   0.00059   0.73915   1.000
    N36     N    0.84746   0.45555   0.93044   1.000
    O37     O    0.80340   0.44385   0.96164   1.000
    O38     O    0.82785   0.41678   0.96722   1.000
    N39     N    0.15234   0.70556   0.57044   1.000
    O40     O    0.17208   0.66667   0.53370   1.000
    O41     O    0.19656   0.69377   0.53927   1.000
    N42     N    0.37378   0.25073   0.76083   1.000
    N43     N    0.87620   0.24939   0.26084   1.000
    N44     N    0.37620   0.24939   0.26084   1.000
    N45     N    0.12374   0.49941   0.23916   1.000
    N46     N    0.34745   0.95554   0.93042   1.000
    O47     O    0.30339   0.94386   0.96163   1.000
    O48     O    0.32784   0.91678   0.96721   1.000
    N49     N    0.12374   0.99941   0.23917   1.000
    N50     N    0.09757   0.79458   0.07043   1.000
    O51     O    0.05340   0.80630   0.03922   1.000
    O52     O    0.07787   0.83340   0.03364   1.000
    N53     N    0.59757   0.79458   0.07043   1.000
    O54     O    0.55340   0.80630   0.03922   1.000
    O55     O    0.57787   0.83340   0.03364   1.000
    N56     N    0.59758   0.29448   0.07034   1.000
    O57     O    0.55341   0.30624   0.03917   1.000
    O58     O    0.57788   0.33334   0.03359   1.000
    N59     N    0.37381   0.75082   0.76079   1.000
    N60     N    0.87378   0.25074   0.76082   1.000
    N61     N    0.62374   0.99941   0.23917   1.000
    N62     N    0.65235   0.20551   0.57049   1.000
    O63     O    0.69657   0.19374   0.53929   1.000
    O64     O    0.67209   0.16664   0.53350   1.000
    N65     N    0.15235   0.20551   0.57049   1.000
    O66     O    0.17209   0.16664   0.53350   1.000
    O67     O    0.19657   0.19374   0.53929   1.000
    N68     N    0.87381   0.75082   0.76079   1.000
    N69     N    0.12611   0.00059   0.73915   1.000
    N70     N    0.87619   0.74939   0.26084   1.000
    N71     N    0.62374   0.49941   0.23916   1.000
    N72     N    0.37619   0.74939   0.26084   1.000
    N73     N    0.65234   0.70556   0.57044   1.000
    O74     O    0.67208   0.66667   0.53370   1.000
    O75     O    0.69656   0.69377   0.53927   1.000
    N76     N    0.90220   0.54448   0.42951   1.000
    O77     O    0.92200   0.58336   0.46627   1.000
    O78     O    0.94646   0.55627   0.46070   1.000
    N79     N    0.90221   0.04448   0.42951   1.000
    O80     O    0.94646   0.05626   0.46069   1.000
    O81     O    0.92201   0.08336   0.46627   1.000
    N82     N    0.40220   0.54448   0.42951   1.000
    O83     O    0.42200   0.58336   0.46627   1.000
    O84     O    0.44646   0.55627   0.46070   1.000
    N85     N    0.12613   0.50051   0.73911   1.000
    N86     N    0.84745   0.95554   0.93043   1.000
    O87     O    0.80339   0.94386   0.96163   1.000
    O88     O    0.82784   0.91678   0.96722   1.000
    N89     N    0.62613   0.50051   0.73911   1.000
    N90     N    0.34746   0.45555   0.93044   1.000
    O91     O    0.30340   0.44385   0.96164   1.000
    O92     O    0.32785   0.41678   0.96722   1.000
    N93     N    0.40220   0.04448   0.42951   1.000
    O94     O    0.42201   0.08336   0.46627   1.000
    O95     O    0.44646   0.05626   0.46069   1.000
    C96     C    0.88421   0.78409   0.91738   1.000
    O97     O    0.85393   0.80189   0.94278   1.000
    O98     O    0.88065   0.77279   0.86476   1.000
    O99     O    0.91787   0.78570   0.94346   1.000
    C100    C    0.38421   0.78409   0.91738   1.000
    O101    O    0.38065   0.77279   0.86476   1.000
    O102    O    0.41787   0.78570   0.94346   1.000
    O103    O    0.35393   0.80189   0.94278   1.000
    C104    C    0.43436   0.90915   0.99405   1.000
    O105    O    0.43676   0.87305   0.00338   1.000
    O106    O    0.39872   0.88175   0.00339   1.000
    O107    O    0.40102   0.92653   0.97513   1.000
    O108    O    0.47622   0.91743   0.98872   1.000
    C109    C    0.93436   0.90915   0.99408   1.000
    O110    O    0.97622   0.91743   0.98873   1.000
    O111    O    0.89872   0.88175   0.00340   1.000
    O112    O    0.93676   0.87305   0.00339   1.000
    O113    O    0.90102   0.92653   0.97516   1.000
    C114    C    0.38676   0.78304   0.10436   1.000
    O115    O    0.41967   0.78464   0.07833   1.000
    O116    O    0.38312   0.77161   0.15694   1.000
    O117    O    0.35597   0.80137   0.07926   1.000
    C118    C    0.13420   0.96605   0.08260   1.000
    O119    O    0.16788   0.96440   0.05654   1.000
    O120    O    0.13062   0.97739   0.13521   1.000
    O121    O    0.10392   0.94823   0.05724   1.000
    C122    C    0.18432   0.84088   0.00607   1.000
    O123    O    0.22618   0.83261   0.01139   1.000
    O124    O    0.18675   0.87696   0.99671   1.000
    O125    O    0.14870   0.86828   0.99670   1.000
    O126    O    0.15102   0.82355   0.02528   1.000
    C127    C    0.13687   0.96679   0.89556   1.000
    O128    O    0.10604   0.94855   0.92073   1.000
    O129    O    0.13318   0.97827   0.84302   1.000
    O130    O    0.16980   0.96520   0.92160   1.000
    C131    C    0.68432   0.84088   0.00607   1.000
    O132    O    0.72618   0.83261   0.01139   1.000
    O133    O    0.65102   0.82355   0.02528   1.000
    O134    O    0.68675   0.87696   0.99671   1.000
    O135    O    0.64870   0.86828   0.99670   1.000
    C136    C    0.88676   0.78304   0.10436   1.000
    O137    O    0.85597   0.80137   0.07926   1.000
    O138    O    0.91967   0.78464   0.07833   1.000
    O139    O    0.88312   0.77161   0.15694   1.000
    C140    C    0.63420   0.96605   0.08260   1.000
    O141    O    0.66788   0.96440   0.05654   1.000
    O142    O    0.60392   0.94823   0.05724   1.000
    O143    O    0.63062   0.97739   0.13521   1.000
    C144    C    0.63687   0.96679   0.89556   1.000
    O145    O    0.63318   0.97827   0.84302   1.000
    O146    O    0.66980   0.96520   0.92160   1.000
    O147    O    0.60604   0.94855   0.92073   1.000
    C148    C    0.38421   0.28407   0.91741   1.000
    O149    O    0.41787   0.28568   0.94348   1.000
    O150    O    0.35393   0.30188   0.94280   1.000
    O151    O    0.38064   0.27274   0.86480   1.000
    C152    C    0.43437   0.40914   0.99408   1.000
    O153    O    0.39873   0.38174   0.00341   1.000
    O154    O    0.43676   0.37304   0.00340   1.000
    O155    O    0.40103   0.42653   0.97517   1.000
    O156    O    0.47623   0.41742   0.98874   1.000
    C157    C    0.13420   0.46604   0.08260   1.000
    O158    O    0.16788   0.46440   0.05654   1.000
    O159    O    0.10393   0.44822   0.05724   1.000
    O160    O    0.13062   0.47739   0.13521   1.000
    C161    C    0.93437   0.40914   0.99408   1.000
    O162    O    0.97623   0.41742   0.98874   1.000
    O163    O    0.89873   0.38174   0.00341   1.000
    O164    O    0.93677   0.37304   0.00340   1.000
    O165    O    0.90103   0.42653   0.97517   1.000
    C166    C    0.88421   0.28407   0.91741   1.000
    O167    O    0.88064   0.27274   0.86479   1.000
    O168    O    0.91787   0.28568   0.94348   1.000
    O169    O    0.85393   0.30188   0.94280   1.000
    C170    C    0.88676   0.28304   0.10436   1.000
    O171    O    0.91968   0.28463   0.07833   1.000
    O172    O    0.85598   0.30137   0.07926   1.000
    O173    O    0.88313   0.27160   0.15694   1.000
    C174    C    0.18432   0.34087   0.00609   1.000
    O175    O    0.15102   0.32351   0.02527   1.000
    O176    O    0.18675   0.37695   0.99673   1.000
    O177    O    0.14870   0.36826   0.99672   1.000
    O178    O    0.22619   0.33260   0.01140   1.000
    C179    C    0.68432   0.34087   0.00609   1.000
    O180    O    0.72619   0.33260   0.01140   1.000
    O181    O    0.65102   0.32351   0.02527   1.000
    O182    O    0.68675   0.37695   0.99673   1.000
    O183    O    0.64871   0.36826   0.99672   1.000
    C184    C    0.13688   0.46670   0.89553   1.000
    O185    O    0.16981   0.46511   0.92158   1.000
    O186    O    0.10605   0.44850   0.92071   1.000
    O187    O    0.13319   0.47819   0.84297   1.000
    C188    C    0.38676   0.28304   0.10436   1.000
    O189    O    0.38313   0.27160   0.15694   1.000
    O190    O    0.35598   0.30137   0.07926   1.000
    O191    O    0.41968   0.28463   0.07833   1.000
    C192    C    0.63420   0.46604   0.08257   1.000
    O193    O    0.66788   0.46440   0.05653   1.000
    O194    O    0.60393   0.44822   0.05720   1.000
    O195    O    0.63062   0.47739   0.13519   1.000
    C196    C    0.63688   0.46670   0.89553   1.000
    O197    O    0.63319   0.47819   0.84297   1.000
    O198    O    0.66981   0.46511   0.92158   1.000
    O199    O    0.60605   0.44850   0.92071   1.000
    C200    C    0.06570   0.65914   0.50612   1.000
    O201    O    0.06327   0.62306   0.49672   1.000
    O202    O    0.10131   0.63173   0.49675   1.000
    O203    O    0.02382   0.66743   0.51139   1.000
    O204    O    0.09897   0.67650   0.52533   1.000
    C205    C    0.56570   0.65914   0.50612   1.000
    O206    O    0.52382   0.66743   0.51139   1.000
    O207    O    0.56327   0.62306   0.49672   1.000
    O208    O    0.60131   0.63173   0.49675   1.000
    O209    O    0.59897   0.67650   0.52533   1.000
    C210    C    0.86572   0.71600   0.41738   1.000
    O211    O    0.89602   0.69822   0.44275   1.000
    O212    O    0.83207   0.71435   0.44346   1.000
    O213    O    0.86931   0.72735   0.36479   1.000
    C214    C    0.11318   0.53305   0.39567   1.000
    O215    O    0.08026   0.53464   0.42169   1.000
    O216    O    0.14397   0.55136   0.42079   1.000
    O217    O    0.11681   0.52162   0.34308   1.000
    C218    C    0.61318   0.53305   0.39567   1.000
    O219    O    0.61681   0.52162   0.34308   1.000
    O220    O    0.64397   0.55136   0.42079   1.000
    O221    O    0.58026   0.53464   0.42169   1.000
    C222    C    0.81565   0.59088   0.49390   1.000
    O223    O    0.84889   0.57353   0.47467   1.000
    O224    O    0.81326   0.62697   0.50329   1.000
    O225    O    0.85129   0.61829   0.50327   1.000
    O226    O    0.77377   0.58259   0.48863   1.000
    C227    C    0.36572   0.71600   0.41738   1.000
    O228    O    0.33207   0.71435   0.44346   1.000
    O229    O    0.39602   0.69822   0.44275   1.000
    O230    O    0.36931   0.72735   0.36479   1.000
    C231    C    0.61550   0.53403   0.58265   1.000
    O232    O    0.58188   0.53570   0.55658   1.000
    O233    O    0.61914   0.52264   0.63522   1.000
    O234    O    0.64587   0.55180   0.55727   1.000
    C235    C    0.31565   0.59088   0.49390   1.000
    O236    O    0.31326   0.62697   0.50329   1.000
    O237    O    0.35129   0.61829   0.50327   1.000
    O238    O    0.27377   0.58259   0.48863   1.000
    O239    O    0.34889   0.57353   0.47467   1.000
    C240    C    0.86323   0.71702   0.60434   1.000
    O241    O    0.86687   0.72851   0.65690   1.000
    O242    O    0.89400   0.69869   0.57921   1.000
    O243    O    0.83032   0.71542   0.57831   1.000
    C244    C    0.11550   0.53403   0.58265   1.000
    O245    O    0.08188   0.53570   0.55658   1.000
    O246    O    0.14587   0.55180   0.55727   1.000
    O247    O    0.11913   0.52264   0.63522   1.000
    C248    C    0.36323   0.71702   0.60434   1.000
    O249    O    0.39400   0.69869   0.57921   1.000
    O250    O    0.33032   0.71542   0.57831   1.000
    O251    O    0.36687   0.72851   0.65690   1.000
    C252    C    0.86322   0.21699   0.60419   1.000
    O253    O    0.86686   0.22846   0.65684   1.000
    O254    O    0.89400   0.19867   0.57912   1.000
    O255    O    0.83032   0.21539   0.57814   1.000
    C256    C    0.61318   0.03303   0.39567   1.000
    O257    O    0.61681   0.02161   0.34309   1.000
    O258    O    0.58027   0.03463   0.42170   1.000
    O259    O    0.64397   0.05135   0.42057   1.000
    C260    C    0.61550   0.03405   0.58266   1.000
    O261    O    0.61913   0.02267   0.63525   1.000
    O262    O    0.58187   0.03571   0.55659   1.000
    O263    O    0.64587   0.05180   0.55705   1.000
    C264    C    0.36572   0.21600   0.41738   1.000
    O265    O    0.33207   0.21435   0.44346   1.000
    O266    O    0.39602   0.19821   0.44275   1.000
    O267    O    0.36931   0.22735   0.36479   1.000
    C268    C    0.86572   0.21600   0.41738   1.000
    O269    O    0.89602   0.19821   0.44275   1.000
    O270    O    0.83207   0.21435   0.44346   1.000
    O271    O    0.86931   0.22735   0.36479   1.000
    C272    C    0.56570   0.15913   0.50611   1.000
    O273    O    0.56327   0.12305   0.49671   1.000
    O274    O    0.60131   0.13173   0.49650   1.000
    O275    O    0.59898   0.17648   0.52534   1.000
    O276    O    0.52382   0.16742   0.51138   1.000
    C277    C    0.81565   0.09088   0.49390   1.000
    O278    O    0.84890   0.07352   0.47467   1.000
    O279    O    0.81326   0.12696   0.50329   1.000
    O280    O    0.85129   0.11828   0.50327   1.000
    O281    O    0.77378   0.08258   0.48840   1.000
    C282    C    0.11318   0.03303   0.39567   1.000
    O283    O    0.08027   0.03463   0.42170   1.000
    O284    O    0.14397   0.05135   0.42057   1.000
    O285    O    0.11681   0.02161   0.34309   1.000
    C286    C    0.06570   0.15913   0.50611   1.000
    O287    O    0.06327   0.12305   0.49671   1.000
    O288    O    0.10131   0.13173   0.49650   1.000
    O289    O    0.02382   0.16742   0.51138   1.000
    O290    O    0.09898   0.17648   0.52534   1.000
    C291    C    0.31565   0.09088   0.49390   1.000
    O292    O    0.35129   0.11828   0.50327   1.000
    O293    O    0.31326   0.12696   0.50329   1.000
    O294    O    0.27378   0.08258   0.48840   1.000
    O295    O    0.34890   0.07352   0.47467   1.000
    C296    C    0.11550   0.03405   0.58266   1.000
    O297    O    0.08187   0.03571   0.55659   1.000
    O298    O    0.14587   0.05180   0.55705   1.000
    O299    O    0.11913   0.02267   0.63525   1.000
    C300    C    0.36322   0.21699   0.60435   1.000
    O301    O    0.39400   0.19867   0.57922   1.000
    O302    O    0.33032   0.21539   0.57832   1.000
    O303    O    0.36686   0.22846   0.65692   1.000
loop_
    _geom_bond_atom_site_label_1
    _geom_bond_atom_site_label_2
    _geom_bond_distance
    _geom_bond_site_symmetry_2
    _ccdc_geom_bond_type
    N32    O33       1.15127      .   S
    Zr2    O33       1.89561  1_655   S
    N32    O34       1.29379      .   S
    Zr28   O34       2.18836  1_556   S
    N36    O37       1.14886      .   S
    Zr26   O37       1.88956      .   S
    N36    O38       1.29141      .   S
    Zr6    O38       2.18330  1_554   S
    N39    O40       1.29413      .   S
    Zr21   O40       2.18891      .   S
    N39    O41       1.15190      .   S
    Zr9    O41       1.89674      .   S
    N46    O47       1.14882      .   S
    Zr25   O47       1.88955      .   S
    N46    O48       1.29133      .   S
    Zr5    O48       2.18325  1_554   S
    N50    O51       1.15139      .   S
    Zr3    O51       1.89587  1_655   S
    N50    O52       1.29340      .   S
    Zr29   O52       2.18768  1_556   S
    N53    O54       1.15139      .   S
    Zr1    O54       1.89587      .   S
    N53    O55       1.29340      .   S
    Zr31   O55       2.18768  1_556   S
    N56    O57       1.15127      .   S
    Zr0    O57       1.89561      .   S
    N56    O58       1.29379      .   S
    Zr30   O58       2.18835  1_556   S
    N62    O63       1.15200      .   S
    Zr10   O63       1.89688      .   S
    N62    O64       1.29658      .   S
    Zr22   O64       2.19427      .   S
    N65    O66       1.29658      .   S
    Zr20   O66       2.19426      .   S
    N65    O67       1.15200      .   S
    Zr8    O67       1.89688      .   S
    N73    O74       1.29413      .   S
    Zr23   O74       2.18890      .   S
    N73    O75       1.15190      .   S
    Zr11   O75       1.89673      .   S
    N76    O77       1.29424      .   S
    Zr15   O77       2.18898      .   S
    N76    O78       1.15257      .   S
    Zr17   O78       1.89792  1_455   S
    N79    O80       1.15253      .   S
    Zr16   O80       1.89788  1_455   S
    N79    O81       1.29417      .   S
    Zr14   O81       2.18890      .   S
    N82    O83       1.29425      .   S
    Zr13   O83       2.18898      .   S
    N82    O84       1.15258      .   S
    Zr19   O84       1.89792      .   S
    N86    O87       1.14877      .   S
    Zr27   O87       1.88953      .   S
    N86    O88       1.29128      .   S
    Zr7    O88       2.18321  1_554   S
    N90    O91       1.14886      .   S
    Zr24   O91       1.88956      .   S
    N90    O92       1.29140      .   S
    Zr4    O92       2.18329  1_554   S
    N93    O94       1.29417      .   S
    Zr12   O94       2.18891      .   S
    N93    O95       1.15253      .   S
    Zr18   O95       1.89789      .   S
    C96    O97       0.92669      .   S
    Zr7    O97       1.85233  1_554   S
    C96    O98       1.10353      .   S
    N68    O98       2.17771      .   S
    C96    O99       0.87610      .   S
    Zr3    O99       1.75578  1_554   S
    C100   O101      1.10353      .   S
    N59    O101      2.17772      .   S
    C100   O102      0.87610      .   S
    Zr1    O102      1.75578  1_554   S
    C100   O103      0.92669      .   S
    Zr5    O103      1.85232  1_554   S
    C104   O105      0.92795  1_556   S
    Zr1    O105      1.86039      .   S
    C104   O106      1.02752  1_556   S
    Zr5    O106      2.07303      .   S
    C104   O107      0.90346      .   S
    N46    O107      1.60812      .   S
    C104   O108      0.89956      .   S
    Zr31   O108      1.83034      .   S
    C109   O110      0.89959      .   S
    Zr29   O110      1.83032  1_455   S
    C109   O111      1.02747  1_556   S
    Zr7    O111      2.07300      .   S
    C109   O112      0.92789  1_556   S
    Zr3    O112      1.86037      .   S
    C109   O113      0.90347      .   S
    N86    O113      1.60834      .   S
    C114   O115      0.86313      .   S
    Zr1    O115      1.73222      .   S
    C114   O116      1.10379      .   S
    N72    O116      2.17861      .   S
    C114   O117      0.93723      .   S
    Zr5    O117      1.87264      .   S
    C118   O119      0.87605      .   S
    Zr25   O119      1.75583  1_556   S
    C118   O120      1.10355      .   S
    N49    O120      2.17792      .   S
    C118   O121      0.92610      .   S
    Zr29   O121      1.85114  1_556   S
    C122   O123      0.89978      .   S
    Zr5    O123      1.83060      .   S
    C122   O124      0.92754  1_554   S
    Zr25   O124      1.86005      .   S
    C122   O125      1.02794  1_554   S
    Zr29   O125      2.07422      .   S
    C122   O126      0.90426      .   S
    N50    O126      1.60992      .   S
    C127   O128      0.93692      .   S
    Zr29   O128      1.87195      .   S
    C127   O129      1.10372      .   S
    N69    O129      2.17863  1_545   S
    C127   O130      0.86355      .   S
    Zr25   O130      1.73318      .   S
    C131   O132      0.89978      .   S
    Zr7    O132      1.83060      .   S
    C131   O133      0.90426      .   S
    N53    O133      1.60992      .   S
    C131   O134      0.92754  1_554   S
    Zr27   O134      1.86005      .   S
    C131   O135      1.02793  1_554   S
    Zr31   O135      2.07421      .   S
    C136   O137      0.93723      .   S
    Zr7    O137      1.87264      .   S
    C136   O138      0.86312      .   S
    Zr3    O138      1.73222      .   S
    C136   O139      1.10379      .   S
    N70    O139      2.17861      .   S
    C140   O141      0.87605      .   S
    Zr27   O141      1.75583  1_556   S
    C140   O142      0.92610      .   S
    Zr31   O142      1.85113  1_556   S
    C140   O143      1.10355      .   S
    N61    O143      2.17792      .   S
    C144   O145      1.10372      .   S
    N35    O145      2.17863  1_545   S
    C144   O146      0.86355      .   S
    Zr27   O146      1.73318      .   S
    C144   O147      0.93691      .   S
    Zr31   O147      1.87195      .   S
    C148   O149      0.87596      .   S
    Zr0    O149      1.75558  1_554   S
    C148   O150      0.92657      .   S
    Zr4    O150      1.85210  1_554   S
    C148   O151      1.10357      .   S
    N42    O151      2.17801      .   S
    C152   O153      1.02746  1_556   S
    Zr4    O153      2.07302      .   S
    C152   O154      0.92789  1_556   S
    Zr0    O154      1.86036      .   S
    C152   O155      0.90350      .   S
    N90    O155      1.60843      .   S
    C152   O156      0.89956      .   S
    Zr30   O156      1.83028      .   S
    C157   O158      0.87605      .   S
    Zr24   O158      1.75585  1_556   S
    C157   O159      0.92613      .   S
    Zr28   O159      1.85120  1_556   S
    C157   O160      1.10352      .   S
    N45    O160      2.17790      .   S
    C161   O162      0.89956      .   S
    Zr28   O162      1.83027  1_455   S
    C161   O163      1.02746  1_556   S
    Zr6    O163      2.07303      .   S
    C161   O164      0.92789  1_556   S
    Zr2    O164      1.86036      .   S
    C161   O165      0.90351      .   S
    N36    O165      1.60843      .   S
    C166   O167      1.10359      .   S
    N60    O167      2.17810      .   S
    C166   O168      0.87596      .   S
    Zr2    O168      1.75557  1_554   S
    C166   O169      0.92656      .   S
    Zr6    O169      1.85210  1_554   S
    C170   O171      0.86314      .   S
    Zr2    O171      1.73222      .   S
    C170   O172      0.93723      .   S
    Zr6    O172      1.87264      .   S
    C170   O173      1.10379      .   S
    N43    O173      2.17859      .   S
    C174   O175      0.90425      .   S
    N32    O175      1.60969      .   S
    C174   O176      0.92755  1_554   S
    Zr24   O176      1.86001      .   S
    C174   O177      1.02799  1_554   S
    Zr28   O177      2.07420      .   S
    C174   O178      0.89977      .   S
    Zr4    O178      1.83065      .   S
    C179   O180      0.89977      .   S
    Zr6    O180      1.83064      .   S
    C179   O181      0.90425      .   S
    N56    O181      1.60970      .   S
    C179   O182      0.92755  1_554   S
    Zr26   O182      1.86001      .   S
    C179   O183      1.02799  1_554   S
    Zr30   O183      2.07421      .   S
    C184   O185      0.86381      .   S
    Zr24   O185      1.73313      .   S
    C184   O186      0.93671      .   S
    Zr28   O186      1.87189      .   S
    C184   O187      1.10394      .   S
    N85    O187      2.17859      .   S
    C188   O189      1.10379      .   S
    N44    O189      2.17859      .   S
    C188   O190      0.93723      .   S
    Zr4    O190      1.87264      .   S
    C188   O191      0.86314      .   S
    Zr0    O191      1.73222      .   S
    C192   O193      0.87586      .   S
    Zr26   O193      1.75561  1_556   S
    C192   O194      0.92622      .   S
    Zr30   O194      1.85064  1_556   S
    C192   O195      1.10381      .   S
    N71    O195      2.17819      .   S
    C196   O197      1.10393      .   S
    N89    O197      2.17855      .   S
    C196   O198      0.86380      .   S
    Zr26   O198      1.73312      .   S
    C196   O199      0.93671      .   S
    Zr30   O199      1.87189      .   S
    C200   O201      0.92757      .   S
    Zr17   O201      1.86008      .   S
    C200   O202      1.02790      .   S
    Zr21   O202      2.07367      .   S
    C200   O203      0.90002      .   S
    Zr15   O203      1.83101  1_655   S
    C200   O204      0.90419      .   S
    N39    O204      1.60954      .   S
    C205   O206      0.90002      .   S
    Zr13   O206      1.83101      .   S
    C205   O207      0.92757      .   S
    Zr19   O207      1.86008      .   S
    C205   O208      1.02790      .   S
    Zr23   O208      2.07367      .   S
    C205   O209      0.90419      .   S
    N73    O209      1.60954      .   S
    C210   O211      0.92660      .   S
    Zr15   O211      1.85219      .   S
    C210   O212      0.87577      .   S
    Zr11   O212      1.75524      .   S
    C210   O213      1.10361      .   S
    N70    O213      2.17813      .   S
    C214   O215      0.86309      .   S
    Zr17   O215      1.73208      .   S
    C214   O216      0.93684      .   S
    Zr21   O216      1.87180      .   S
    C214   O217      1.10370      .   S
    N45    O217      2.17838      .   S
    C218   O219      1.10370      .   S
    N71    O219      2.17838      .   S
    C218   O220      0.93684      .   S
    Zr23   O220      1.87180      .   S
    C218   O221      0.86309      .   S
    Zr19   O221      1.73208      .   S
    C222   O223      0.90409      .   S
    N76    O223      1.60926      .   S
    C222   O224      0.92765      .   S
    Zr11   O224      1.86032      .   S
    C222   O225      1.02772      .   S
    Zr15   O225      2.07328      .   S
    C222   O226      0.89985      .   S
    Zr23   O226      1.83068      .   S
    C227   O228      0.87577      .   S
    Zr9    O228      1.75523      .   S
    C227   O229      0.92661      .   S
    Zr13   O229      1.85220      .   S
    C227   O230      1.10361      .   S
    N72    O230      2.17813      .   S
    C231   O232      0.87558      .   S
    Zr19   O232      1.75490      .   S
    C231   O233      1.10353      .   S
    N89    O233      2.17797      .   S
    C231   O234      0.92693      .   S
    Zr23   O234      1.85271      .   S
    C235   O236      0.92765      .   S
    Zr9    O236      1.86032      .   S
    C235   O237      1.02772      .   S
    Zr13   O237      2.07328      .   S
    C235   O238      0.89985      .   S
    Zr21   O238      1.83068      .   S
    C235   O239      0.90409      .   S
    N82    O239      1.60925      .   S
    C240   O241      1.10369      .   S
    N68    O241      2.17849      .   S
    C240   O242      0.93705      .   S
    Zr15   O242      1.87230      .   S
    C240   O243      0.86307      .   S
    Zr11   O243      1.73215      .   S
    C244   O245      0.87558      .   S
    Zr17   O245      1.75490      .   S
    C244   O246      0.92692      .   S
    Zr21   O246      1.85271      .   S
    C244   O247      1.10351      .   S
    N85    O247      2.17793      .   S
    C248   O249      0.93705      .   S
    Zr13   O249      1.87230      .   S
    C248   O250      0.86307      .   S
    Zr9    O250      1.73215      .   S
    C248   O251      1.10369      .   S
    N59    O251      2.17849      .   S
    C252   O253      1.10526      .   S
    N60    O253      2.17995      .   S
    C252   O254      0.93640      .   S
    Zr14   O254      1.87086      .   S
    C252   O255      0.86333      .   S
    Zr10   O255      1.72933      .   S
    C256   O257      1.10367      .   S
    N61    O257      2.17832  1_565   S
    C256   O258      0.86310      .   S
    Zr18   O258      1.73205      .   S
    C256   O259      0.93437      .   S
    Zr22   O259      1.86179      .   S
    C260   O261      1.10356      .   S
    N35    O261      2.17802      .   S
    C260   O262      0.87559      .   S
    Zr18   O262      1.75492      .   S
    C260   O263      0.92947      .   S
    Zr22   O263      1.86294      .   S
    C264   O265      0.87578      .   S
    Zr8    O265      1.75525      .   S
    C264   O266      0.92661      .   S
    Zr12   O266      1.85221      .   S
    C264   O267      1.10360      .   S
    N44    O267      2.17809      .   S
    C268   O269      0.92661      .   S
    Zr14   O269      1.85220      .   S
    C268   O270      0.87578      .   S
    Zr10   O270      1.75525      .   S
    C268   O271      1.10360      .   S
    N43    O271      2.17809      .   S
    C272   O273      0.92757      .   S
    Zr18   O273      1.86002      .   S
    C272   O274      1.02876      .   S
    Zr22   O274      2.07474      .   S
    C272   O275      0.90426      .   S
    N62    O275      1.60964      .   S
    C272   O276      0.90004      .   S
    Zr12   O276      1.83101      .   S
    C277   O278      0.90407      .   S
    N79    O278      1.60926      .   S
    C277   O279      0.92766      .   S
    Zr10   O279      1.86034      .   S
    C277   O280      1.02773      .   S
    Zr14   O280      2.07328      .   S
    C277   O281      0.90039      .   S
    Zr22   O281      1.83069      .   S
    C282   O283      0.86310      .   S
    Zr16   O283      1.73205      .   S
    C282   O284      0.93437      .   S
    Zr20   O284      1.86178      .   S
    C282   O285      1.10367      .   S
    N49    O285      2.17832  1_565   S
    C286   O287      0.92757      .   S
    Zr16   O287      1.86002      .   S
    C286   O288      1.02876      .   S
    Zr20   O288      2.07473      .   S
    C286   O289      0.90004      .   S
    Zr14   O289      1.83101  1_655   S
    C286   O290      0.90426      .   S
    N65    O290      1.60964      .   S
    C291   O292      1.02773      .   S
    Zr12   O292      2.07329      .   S
    C291   O293      0.92766      .   S
    Zr8    O293      1.86033      .   S
    C291   O294      0.90040      .   S
    Zr20   O294      1.83069      .   S
    C291   O295      0.90408      .   S
    N93    O295      1.60925      .   S
    C296   O297      0.87559      .   S
    Zr16   O297      1.75491      .   S
    C296   O298      0.92947      .   S
    Zr20   O298      1.86294      .   S
    C296   O299      1.10356      .   S
    N69    O299      2.17802      .   S
    C300   O301      0.93706      .   S
    Zr12   O301      1.87235      .   S
    C300   O302      0.86308      .   S
    Zr8    O302      1.73216      .   S
    C300   O303      1.10373      .   S
    N42    O303      2.17848      .   S
