# CIF file generated by openbabel 2.4.90, see http://openbabel.sf.net
data_I
_chemical_name_common ''
_cell_length_a 5.723
_cell_length_b 10.564
_cell_length_c 16.265
_cell_angle_alpha 89.97
_cell_angle_beta 89.969
_cell_angle_gamma 87.555
_space_group_name_H-M_alt 'P 1'
_space_group_name_Hall 'P 1'
loop_
    _symmetry_equiv_pos_as_xyz
    x,y,z
loop_
    _atom_site_label
    _atom_site_type_symbol
    _atom_site_fract_x
    _atom_site_fract_y
    _atom_site_fract_z
    _atom_site_occupancy
    Cu0     Cu   0.75141   0.00520   0.06925   1.000
    Cu1     Cu   0.75163   0.50505   0.43073   1.000
    Cu2     Cu   0.24861   0.99480   0.93080   1.000
    C3      C    0.65319   0.35213   0.66143   1.000
    C4      C    0.34590   0.14877   0.16108   1.000
    C5      C    0.34685   0.64787   0.33864   1.000
    Cu6     Cu   0.24840   0.49494   0.56933   1.000
    C7      C    0.65413   0.85121   0.83899   1.000
    N8      N    0.56315   0.39168   0.58798   1.000
    N9      N    0.74578   0.43996   0.54724   1.000
    N10     N    0.93651   0.43026   0.59572   1.000
    N11     N    0.88158   0.37702   0.66762   1.000
    N12     N    0.43656   0.10846   0.08789   1.000
    N13     N    0.25412   0.05994   0.04725   1.000
    N14     N    0.06286   0.07040   0.09549   1.000
    N15     N    0.11732   0.12419   0.16720   1.000
    N16     N    0.43689   0.60831   0.41208   1.000
    N17     N    0.25426   0.56003   0.45283   1.000
    N18     N    0.06353   0.56973   0.40434   1.000
    N19     N    0.11847   0.62298   0.33244   1.000
    N20     N    0.56347   0.89153   0.91218   1.000
    N21     N    0.74590   0.94006   0.95281   1.000
    N22     N    0.93717   0.92959   0.90457   1.000
    N23     N    0.88270   0.87579   0.83287   1.000
    Ts24    Ts   0.72294   0.95884   0.09662   1.000
    Ts25    Ts   0.72273   0.45892   0.40327   1.000
    Ts26    Ts   0.27708   0.04116   0.90344   1.000
    Ts27    Ts   0.61328   0.32913   0.68277   1.000
    Ts28    Ts   0.38569   0.17182   0.18240   1.000
    Ts29    Ts   0.38676   0.67087   0.31730   1.000
    Ts30    Ts   0.27730   0.54107   0.59679   1.000
    Ts31    Ts   0.61434   0.82815   0.81768   1.000
loop_
    _geom_bond_atom_site_label_1
    _geom_bond_atom_site_label_2
    _geom_bond_distance
    _geom_bond_site_symmetry_2
    _ccdc_geom_bond_type
    N13    N12       1.35516      .   S
    N13    N14       1.34718      .   S
    N13    Cu2       2.01624  1_544   S
    Cu0    N12       2.08825      .   S
    Cu0    N14       1.98482  1_655   S
    Cu0    N21       2.01609  1_544   S
    N12    C4        1.35971      .   S
    N14    N15       1.34037      .   S
    C4     N15       1.34808      .   S
    N19    C5        1.34805      .   S
    N19    N18       1.34039      .   S
    C5     N16       1.35976      .   S
    N18    Cu1       1.98502  1_455   S
    N18    N17       1.34734      .   S
    N16    Cu1       2.08781      .   S
    N16    N17       1.35502      .   S
    Cu1    N9        2.01633      .   S
    N17    Cu6       2.01618      .   S
    N9     N8        1.35503      .   S
    N9     N10       1.34733      .   S
    Cu6    N8        2.08786      .   S
    Cu6    N10       1.98502  1_455   S
    N8     C3        1.35976      .   S
    N10    N11       1.34039      .   S
    C3     N11       1.34805      .   S
    N23    C7        1.34808      .   S
    N23    N22       1.34035      .   S
    C7     N20       1.35972      .   S
    N22    Cu2       1.98479  1_655   S
    N22    N21       1.34720      .   S
    N20    Cu2       2.08824      .   S
    N20    N21       1.35516      .   S
    Cu0    Ts24      0.68635  1_545   S
    Cu1    Ts25      0.68667      .   S
    Cu2    Ts26      0.68633  1_565   S
    C3     Ts27      0.48605      .   S
    C4     Ts28      0.48608      .   S
    C5     Ts29      0.48605      .   S
    Cu6    Ts30      0.68669      .   S
    C7     Ts31      0.48608      .   S
