# CIF file generated by openbabel 2.4.90, see http://openbabel.sf.net
data_I
_chemical_name_common ''
_cell_length_a 5.723
_cell_length_b 10.564
_cell_length_c 16.265
_cell_angle_alpha 89.97
_cell_angle_beta 89.969
_cell_angle_gamma 87.555
_space_group_name_H-M_alt 'P 1'
_space_group_name_Hall 'P 1'
loop_
    _symmetry_equiv_pos_as_xyz
    x,y,z
loop_
    _atom_site_label
    _atom_site_type_symbol
    _atom_site_fract_x
    _atom_site_fract_y
    _atom_site_fract_z
    _atom_site_occupancy
    C0      C    0.65319   0.35213   0.66143   1.000
    C1      C    0.34590   0.14877   0.16108   1.000
    C2      C    0.34685   0.64787   0.33864   1.000
    C3      C    0.65413   0.85121   0.83899   1.000
    N4      N    0.56315   0.39168   0.58798   1.000
    N5      N    0.74578   0.43996   0.54724   1.000
    N6      N    0.93651   0.43026   0.59572   1.000
    N7      N    0.88158   0.37702   0.66762   1.000
    N8      N    0.43656   0.10846   0.08789   1.000
    N9      N    0.25412   0.05994   0.04725   1.000
    N10     N    0.06286   0.07040   0.09549   1.000
    N11     N    0.11732   0.12419   0.16720   1.000
    N12     N    0.43689   0.60831   0.41208   1.000
    N13     N    0.25426   0.56003   0.45283   1.000
    N14     N    0.06353   0.56973   0.40434   1.000
    N15     N    0.11847   0.62298   0.33244   1.000
    N16     N    0.56347   0.89153   0.91218   1.000
    N17     N    0.74590   0.94006   0.95281   1.000
    N18     N    0.93717   0.92959   0.90457   1.000
    N19     N    0.88270   0.87579   0.83287   1.000
loop_
    _geom_bond_atom_site_label_1
    _geom_bond_atom_site_label_2
    _geom_bond_distance
    _geom_bond_site_symmetry_2
    _ccdc_geom_bond_type
    N9     N8        1.35516      .   S
    N9     N10       1.34718      .   S
    N8     C1        1.35971      .   S
    N10    N11       1.34037      .   S
    C1     N11       1.34808      .   S
    N15    C2        1.34805      .   S
    N15    N14       1.34039      .   S
    C2     N12       1.35976      .   S
    N14    N13       1.34734      .   S
    N12    N13       1.35502      .   S
    N5     N4        1.35503      .   S
    N5     N6        1.34733      .   S
    N4     C0        1.35976      .   S
    N6     N7        1.34039      .   S
    C0     N7        1.34805      .   S
    N19    C3        1.34808      .   S
    N19    N18       1.34035      .   S
    C3     N16       1.35972      .   S
    N18    N17       1.34720      .   S
    N16    N17       1.35516      .   S
