# CIF file generated by openbabel 2.4.90, see http://openbabel.sf.net
data_I
_chemical_name_common ''
_cell_length_a 5.723
_cell_length_b 10.564
_cell_length_c 16.265
_cell_angle_alpha 89.97
_cell_angle_beta 89.969
_cell_angle_gamma 87.555
_space_group_name_H-M_alt 'P 1'
_space_group_name_Hall 'P 1'
loop_
    _symmetry_equiv_pos_as_xyz
    x,y,z
loop_
    _atom_site_label
    _atom_site_type_symbol
    _atom_site_fract_x
    _atom_site_fract_y
    _atom_site_fract_z
    _atom_site_occupancy
    C0      C    0.24840   0.49494   0.56933   1.000
    C1      C    0.75141   0.00520   0.06925   1.000
    C2      C    0.75163   0.50505   0.43073   1.000
    C3      C    0.24861   0.99480   0.93080   1.000
    C4      C    0.25520   0.21467   0.64901   1.000
    C5      C    0.09187   0.08357   0.76105   1.000
    C6      C    0.77967   0.33026   0.82082   1.000
    C7      C    0.59116   0.19731   0.92689   1.000
    C8      C    0.74349   0.28667   0.14851   1.000
    C9      C    0.90698   0.41731   0.26061   1.000
    C10     C    0.21861   0.17083   0.32037   1.000
    C11     C    0.40742   0.30322   0.42651   1.000
    C12     C    0.74482   0.78535   0.35107   1.000
    C13     C    0.90815   0.91645   0.23903   1.000
    C14     C    0.22039   0.66973   0.17925   1.000
    C15     C    0.40889   0.80268   0.07318   1.000
    C16     C    0.25654   0.71330   0.85156   1.000
    C17     C    0.09306   0.58266   0.73946   1.000
    C18     C    0.78141   0.82914   0.67971   1.000
    C19     C    0.59261   0.69676   0.57357   1.000
    C20     C    0.65319   0.35213   0.66143   1.000
    C21     C    0.53347   0.28313   0.72545   1.000
    C22     C    0.33519   0.21343   0.70964   1.000
    C23     C    0.24304   0.14072   0.77200   1.000
    C24     C    0.62562   0.27798   0.80562   1.000
    C25     C    0.52182   0.20396   0.86451   1.000
    C26     C    0.34590   0.14877   0.16108   1.000
    C27     C    0.46527   0.21794   0.22502   1.000
    C28     C    0.66347   0.28774   0.20917   1.000
    C29     C    0.75576   0.36016   0.27158   1.000
    C30     C    0.37283   0.22304   0.30518   1.000
    C31     C    0.47682   0.29675   0.36411   1.000
    C32     C    0.34685   0.64787   0.33864   1.000
    C33     C    0.46657   0.71687   0.27462   1.000
    C34     C    0.66483   0.78659   0.29044   1.000
    C35     C    0.75699   0.85930   0.22807   1.000
    C36     C    0.37443   0.72202   0.19445   1.000
    C37     C    0.47823   0.79604   0.13556   1.000
    C38     C    0.65413   0.85121   0.83899   1.000
    C39     C    0.53476   0.78203   0.77505   1.000
    C40     C    0.33656   0.71223   0.79091   1.000
    C41     C    0.24427   0.63982   0.72850   1.000
    C42     C    0.62719   0.77693   0.69489   1.000
    C43     C    0.52320   0.70323   0.63596   1.000
    C44     C    0.56315   0.39168   0.58798   1.000
    C45     C    0.74578   0.43996   0.54724   1.000
    C46     C    0.93651   0.43026   0.59572   1.000
    C47     C    0.88158   0.37702   0.66762   1.000
    C48     C    0.33403   0.13389   0.84871   1.000
    C49     C    0.43656   0.10846   0.08789   1.000
    C50     C    0.25412   0.05994   0.04725   1.000
    C51     C    0.06286   0.07040   0.09549   1.000
    C52     C    0.11732   0.12419   0.16720   1.000
    C53     C    0.66492   0.36666   0.34835   1.000
    C54     C    0.43689   0.60831   0.41208   1.000
    C55     C    0.25426   0.56003   0.45283   1.000
    C56     C    0.06353   0.56973   0.40434   1.000
    C57     C    0.11847   0.62298   0.33244   1.000
    C58     C    0.66601   0.86611   0.15136   1.000
    C59     C    0.56347   0.89153   0.91218   1.000
    C60     C    0.74590   0.94006   0.95281   1.000
    C61     C    0.93717   0.92959   0.90457   1.000
    C62     C    0.88270   0.87579   0.83287   1.000
    C63     C    0.33510   0.63332   0.65172   1.000
    O64     O    0.34534   0.08420   0.06757   1.000
    O65     O    0.15849   0.06517   0.07137   1.000
    O66     O    0.25137   0.02737   0.98903   1.000
    O67     O    0.59398   0.05683   0.07857   1.000
    O68     O    0.90713   0.03780   0.08237   1.000
    O69     O    0.70871   0.93566   0.11031   1.000
    O70     O    0.74865   0.97263   0.01103   1.000
    O71     O    0.44356   0.79936   0.10437   1.000
    O72     O    0.39123   0.12861   0.12449   1.000
    O73     O    0.09009   0.09729   0.13135   1.000
    O74     O    0.57212   0.83108   0.14346   1.000
    O75     O    0.42633   0.75903   0.16501   1.000
    O76     O    0.70348   0.28720   0.17884   1.000
    O77     O    0.71150   0.86270   0.18972   1.000
    O78     O    0.23161   0.13648   0.16414   1.000
    O79     O    0.40558   0.18335   0.19305   1.000
    O80     O    0.29741   0.69588   0.18685   1.000
    O81     O    0.42050   0.71945   0.23453   1.000
    O82     O    0.56437   0.25284   0.21710   1.000
    O83     O    0.70961   0.32395   0.24037   1.000
    O84     O    0.41905   0.22049   0.26510   1.000
    O85     O    0.83257   0.88788   0.23355   1.000
    O86     O    0.71091   0.82294   0.25926   1.000
    O87     O    0.83137   0.38873   0.26609   1.000
    O88     O    0.71034   0.36341   0.30996   1.000
    O89     O    0.56570   0.75173   0.28253   1.000
    O90     O    0.40671   0.68237   0.30663   1.000
    O91     O    0.70483   0.78597   0.32076   1.000
    O92     O    0.29572   0.19694   0.31277   1.000
    O93     O    0.42483   0.25990   0.33465   1.000
    O94     O    0.23266   0.63543   0.33554   1.000
    O95     O    0.09100   0.59635   0.36839   1.000
    O96     O    0.39187   0.62809   0.37536   1.000
    O97     O    0.57087   0.33170   0.35623   1.000
    O98     O    0.70828   0.43585   0.38954   1.000
    O99     O    0.44212   0.29998   0.39531   1.000
    O100    O    0.90758   0.53739   0.41753   1.000
    O101    O    0.15889   0.56488   0.42858   1.000
    O102    O    0.59426   0.55668   0.42141   1.000
    O103    O    0.34558   0.58417   0.43246   1.000
    O104    O    0.74870   0.47250   0.48898   1.000
    O105    O    0.25133   0.52749   0.51108   1.000
    O106    O    0.65446   0.41582   0.56761   1.000
    O107    O    0.84114   0.43511   0.57148   1.000
    O108    O    0.40578   0.44331   0.57865   1.000
    O109    O    0.09246   0.46260   0.58253   1.000
    O110    O    0.29175   0.56413   0.61053   1.000
    O111    O    0.55791   0.70000   0.60476   1.000
    O112    O    0.60817   0.37190   0.62471   1.000
    O113    O    0.90904   0.40364   0.63167   1.000
    O114    O    0.42915   0.66827   0.64384   1.000
    O115    O    0.57520   0.74008   0.66543   1.000
    O116    O    0.29520   0.21405   0.67932   1.000
    O117    O    0.28969   0.63657   0.69011   1.000
    O118    O    0.76738   0.36457   0.66452   1.000
    O119    O    0.59333   0.31763   0.69344   1.000
    O120    O    0.70430   0.80304   0.68730   1.000
    O121    O    0.58098   0.77948   0.73497   1.000
    O122    O    0.43433   0.24828   0.71754   1.000
    O123    O    0.28912   0.17707   0.74082   1.000
    O124    O    0.57955   0.28056   0.76554   1.000
    O125    O    0.16866   0.61124   0.73398   1.000
    O126    O    0.29042   0.67602   0.75970   1.000
    O127    O    0.16745   0.11214   0.76652   1.000
    O128    O    0.28853   0.13731   0.81036   1.000
    O129    O    0.43566   0.74713   0.78298   1.000
    O130    O    0.59444   0.81662   0.80702   1.000
    O131    O    0.29655   0.71277   0.82123   1.000
    O132    O    0.70264   0.30412   0.81322   1.000
    O133    O    0.57372   0.24097   0.83506   1.000
    O134    O    0.76841   0.86350   0.83593   1.000
    O135    O    0.90993   0.90269   0.86872   1.000
    O136    O    0.60880   0.87137   0.87559   1.000
    O137    O    0.42792   0.16893   0.85661   1.000
    O138    O    0.29132   0.06434   0.88976   1.000
    O139    O    0.55649   0.20063   0.89570   1.000
    O140    O    0.09289   0.96219   0.91769   1.000
    O141    O    0.84153   0.93483   0.92869   1.000
    O142    O    0.40604   0.94316   0.92149   1.000
    O143    O    0.65468   0.91579   0.93250   1.000
loop_
    _geom_bond_atom_site_label_1
    _geom_bond_atom_site_label_2
    _geom_bond_distance
    _geom_bond_site_symmetry_2
    _ccdc_geom_bond_type
    C50    O64       0.67758      .   S
    C49    O64       0.67758      .   S
    C50    O65       0.67359      .   S
    C51    O65       0.67359      .   S
    C50    O66       1.00812  1_554   S
    C3     O66       1.00812  1_565   S
    C1     O67       1.04412      .   S
    C49    O67       1.04412      .   S
    C1     O68       0.99241      .   S
    C51    O68       0.99241  1_455   S
    C1     O69       1.02952  1_545   S
    C58    O69       1.02952      .   S
    C1     O70       1.00805  1_545   S
    C60    O70       1.00805  1_556   S
    C15    O71       0.54537      .   S
    C37    O71       0.54537      .   S
    C49    O72       0.67985      .   S
    C26    O72       0.67985      .   S
    C51    O73       0.67018      .   S
    C52    O73       0.67018      .   S
    C37    O74       0.67773      .   S
    C58    O74       0.67773      .   S
    C37    O75       0.69284      .   S
    C36    O75       0.69284      .   S
    C8     O76       0.54365      .   S
    C28    O76       0.54365      .   S
    C58    O77       0.67651      .   S
    C35    O77       0.67651      .   S
    C26    O78       0.67404      .   S
    C52    O78       0.67404      .   S
    C26    O79       0.72912      .   S
    C27    O79       0.72912      .   S
    C14    O80       0.54437      .   S
    C36    O80       0.54437      .   S
    C36    O81       0.70345      .   S
    C33    O81       0.70345      .   S
    C28    O82       0.70138      .   S
    C27    O82       0.70138      .   S
    C28    O83       0.69470      .   S
    C29    O83       0.69470      .   S
    C27    O84       0.70344      .   S
    C30    O84       0.70344      .   S
    C35    O85       0.54535      .   S
    C13    O85       0.54535      .   S
    C35    O86       0.69466      .   S
    C34    O86       0.69466      .   S
    C9     O87       0.54534      .   S
    C29    O87       0.54534      .   S
    C29    O88       0.67650      .   S
    C53    O88       0.67650      .   S
    C33    O89       0.70140      .   S
    C34    O89       0.70140      .   S
    C33    O90       0.72907      .   S
    C32    O90       0.72907      .   S
    C34    O91       0.54364      .   S
    C12    O91       0.54364      .   S
    C30    O92       0.54438      .   S
    C10    O92       0.54438      .   S
    C30    O93       0.69284      .   S
    C31    O93       0.69284      .   S
    C57    O94       0.67403      .   S
    C32    O94       0.67403      .   S
    C57    O95       0.67020      .   S
    C56    O95       0.67020      .   S
    C32    O96       0.67988      .   S
    C54    O96       0.67988      .   S
    C53    O97       0.67774      .   S
    C31    O97       0.67774      .   S
    C53    O98       1.03000      .   S
    C2     O98       1.03000      .   S
    C31    O99       0.54536      .   S
    C11    O99       0.54536      .   S
    C56    O100      0.99251  1_455   S
    C2     O100      0.99251      .   S
    C56    O101      0.67367      .   S
    C55    O101      0.67367      .   S
    C54    O102      1.04391      .   S
    C2     O102      1.04391      .   S
    C54    O103      0.67751      .   S
    C55    O103      0.67751      .   S
    C2     O104      1.00817      .   S
    C45    O104      1.00817      .   S
    C55    O105      1.00809      .   S
    C0     O105      1.00809      .   S
    C45    O106      0.67751      .   S
    C44    O106      0.67751      .   S
    C45    O107      0.67366      .   S
    C46    O107      0.67366      .   S
    C0     O108      1.04393      .   S
    C44    O108      1.04393      .   S
    C0     O109      0.99251      .   S
    C46    O109      0.99251  1_655   S
    C0     O110      1.03004      .   S
    C63    O110      1.03004      .   S
    C19    O111      0.54536      .   S
    C43    O111      0.54536      .   S
    C44    O112      0.67988      .   S
    C20    O112      0.67988      .   S
    C46    O113      0.67019      .   S
    C47    O113      0.67019      .   S
    C43    O114      0.67774      .   S
    C63    O114      0.67774      .   S
    C43    O115      0.69284      .   S
    C42    O115      0.69284      .   S
    C4     O116      0.54364      .   S
    C22    O116      0.54364      .   S
    C63    O117      0.67650      .   S
    C41    O117      0.67650      .   S
    C20    O118      0.67403      .   S
    C47    O118      0.67403      .   S
    C20    O119      0.72907      .   S
    C21    O119      0.72907      .   S
    C18    O120      0.54437      .   S
    C42    O120      0.54437      .   S
    C42    O121      0.70344      .   S
    C39    O121      0.70344      .   S
    C22    O122      0.70141      .   S
    C21    O122      0.70141      .   S
    C22    O123      0.69466      .   S
    C23    O123      0.69466      .   S
    C21    O124      0.70345      .   S
    C24    O124      0.70345      .   S
    C41    O125      0.54535      .   S
    C17    O125      0.54535      .   S
    C41    O126      0.69470      .   S
    C40    O126      0.69470      .   S
    C5     O127      0.54535      .   S
    C23    O127      0.54535      .   S
    C23    O128      0.67651      .   S
    C48    O128      0.67651      .   S
    C39    O129      0.70137      .   S
    C40    O129      0.70137      .   S
    C39    O130      0.72912      .   S
    C38    O130      0.72912      .   S
    C40    O131      0.54365      .   S
    C16    O131      0.54365      .   S
    C24    O132      0.54436      .   S
    C6     O132      0.54436      .   S
    C24    O133      0.69285      .   S
    C25    O133      0.69285      .   S
    C62    O134      0.67404      .   S
    C38    O134      0.67404      .   S
    C62    O135      0.67018      .   S
    C61    O135      0.67018      .   S
    C38    O136      0.67986      .   S
    C59    O136      0.67986      .   S
    C48    O137      0.67773      .   S
    C25    O137      0.67773      .   S
    C48    O138      1.02949      .   S
    C3     O138      1.02949  1_565   S
    C25    O139      0.54538      .   S
    C7     O139      0.54538      .   S
    C61    O140      0.99240  1_655   S
    C3     O140      0.99240      .   S
    C61    O141      0.67360      .   S
    C60    O141      0.67360      .   S
    C59    O142      1.04412      .   S
    C3     O142      1.04412      .   S
    C59    O143      0.67758      .   S
    C60    O143      0.67758      .   S
