# CIF file generated by openbabel 2.4.90, see http://openbabel.sf.net
data_I
_chemical_name_common ''
_cell_length_a 12.7072
_cell_length_b 12.778
_cell_length_c 18.446
_cell_angle_alpha 90.23
_cell_angle_beta 90.0279
_cell_angle_gamma 60.2818
_space_group_name_H-M_alt 'P 1'
_space_group_name_Hall 'P 1'
loop_
    _symmetry_equiv_pos_as_xyz
    x,y,z
loop_
    _atom_site_label
    _atom_site_type_symbol
    _atom_site_fract_x
    _atom_site_fract_y
    _atom_site_fract_z
    _atom_site_occupancy
    Lv0     Lv   0.51308   0.57359   0.10237   1.000
    Lv1     Lv   0.42735   0.48646   0.56513   1.000
    Lv2     Lv   0.57269   0.91385   0.43486   1.000
    Lv3     Lv   0.48630   0.08555   0.89745   1.000
    Lv4     Lv   0.08727   0.42559   0.23126   1.000
    Lv5     Lv   0.99872   0.07771   0.00123   1.000
    Lv6     Lv   0.07744   0.92169   0.33343   1.000
    Lv7     Lv   0.92220   0.00017   0.66674   1.000
    Lv8     Lv   0.91374   0.51411   0.76886   1.000
