# CIF file generated by openbabel 2.4.90, see http://openbabel.sf.net
data_I
_chemical_name_common ''
_cell_length_a 12.7072
_cell_length_b 12.778
_cell_length_c 18.446
_cell_angle_alpha 90.23
_cell_angle_beta 90.0279
_cell_angle_gamma 60.2818
_space_group_name_H-M_alt 'P 1'
_space_group_name_Hall 'P 1'
loop_
    _symmetry_equiv_pos_as_xyz
    x,y,z
loop_
    _atom_site_label
    _atom_site_type_symbol
    _atom_site_fract_x
    _atom_site_fract_y
    _atom_site_fract_z
    _atom_site_occupancy
    C0      C    0.76641   0.80276   0.48995   1.000
    C1      C    0.41905   0.98609   0.31537   1.000
    C2      C    0.42980   0.76778   0.15611   1.000
    C3      C    0.59577   0.41819   0.98357   1.000
    C4      C    0.80299   0.43067   0.82403   1.000
    C5      C    0.98495   0.59639   0.64936   1.000
    C6      C    0.23322   0.56966   0.51013   1.000
    C7      C    0.58091   0.40443   0.68469   1.000
    C8      C    0.56963   0.19666   0.84334   1.000
    C9      C    0.40470   0.01331   0.01679   1.000
    C10     C    0.19817   0.23216   0.17626   1.000
    C11     C    0.01449   0.58036   0.35040   1.000
