# CIF file generated by openbabel 2.4.90, see http://openbabel.sf.net
data_I
_chemical_name_common ''
_cell_length_a 12.7072
_cell_length_b 12.778
_cell_length_c 18.446
_cell_angle_alpha 90.23
_cell_angle_beta 90.0279
_cell_angle_gamma 60.2818
_space_group_name_H-M_alt 'P 1'
_space_group_name_Hall 'P 1'
loop_
    _symmetry_equiv_pos_as_xyz
    x,y,z
loop_
    _atom_site_label
    _atom_site_type_symbol
    _atom_site_fract_x
    _atom_site_fract_y
    _atom_site_fract_z
    _atom_site_occupancy
    Zr0     Zr   0.99940   0.63049   0.49987   1.000
    Zr1     Zr   0.36988   0.99993   0.16605   1.000
    Zr2     Zr   0.63023   0.36927   0.83385   1.000
    Zr3     Zr   0.76641   0.80276   0.48995   1.000
    Zr4     Zr   0.41905   0.98609   0.31537   1.000
    Zr5     Zr   0.42980   0.76778   0.15611   1.000
    Zr6     Zr   0.59577   0.41819   0.98357   1.000
    Zr7     Zr   0.80299   0.43067   0.82403   1.000
    Zr8     Zr   0.98495   0.59639   0.64936   1.000
    Zr9     Zr   0.23322   0.56966   0.51013   1.000
    Zr10    Zr   0.58091   0.40443   0.68469   1.000
    Zr11    Zr   0.56963   0.19666   0.84334   1.000
    Zr12    Zr   0.40470   0.01331   0.01679   1.000
    Zr13    Zr   0.19817   0.23216   0.17626   1.000
    Zr14    Zr   0.01449   0.58036   0.35040   1.000
    Zr15    Zr   0.85390   0.82467   0.47789   1.000
    Zr16    Zr   0.78894   0.70002   0.51216   1.000
    Zr17    Zr   0.45729   0.02439   0.26228   1.000
    Zr18    Zr   0.34538   0.94799   0.30596   1.000
    Zr19    Zr   0.32065   0.85361   0.14376   1.000
    Zr20    Zr   0.50993   0.79183   0.17820   1.000
    Zr21    Zr   0.51963   0.45510   0.93025   1.000
    Zr22    Zr   0.70731   0.34554   0.97458   1.000
    Zr23    Zr   0.82549   0.32174   0.81180   1.000
    Zr24    Zr   0.69950   0.50994   0.84660   1.000
    Zr25    Zr   0.02266   0.52044   0.59591   1.000
    Zr26    Zr   0.94705   0.70732   0.64037   1.000
    Zr27    Zr   0.14697   0.67854   0.52225   1.000
    Zr28    Zr   0.20899   0.49016   0.48764   1.000
    Zr29    Zr   0.54275   0.48029   0.73815   1.000
    Zr30    Zr   0.65404   0.29356   0.69374   1.000
    Zr31    Zr   0.67883   0.17476   0.85586   1.000
    Zr32    Zr   0.48972   0.29960   0.82136   1.000
    Zr33    Zr   0.48132   0.97544   0.06981   1.000
    Zr34    Zr   0.29314   0.05116   0.02635   1.000
    Zr35    Zr   0.17526   0.14584   0.18858   1.000
    Zr36    Zr   0.30175   0.20875   0.15365   1.000
    Zr37    Zr   0.97522   0.54330   0.40363   1.000
    Zr38    Zr   0.05305   0.65346   0.35959   1.000
    O39     O    0.34892   0.03223   0.02157   1.000
    O40     O    0.44301   0.99437   0.04330   1.000
    O41     O    0.42560   0.98768   0.11793   1.000
    O42     O    0.37523   0.81069   0.14993   1.000
    O43     O    0.24996   0.22045   0.16496   1.000
    O44     O    0.46986   0.77980   0.16715   1.000
    O45     O    0.27257   0.07288   0.17731   1.000
    O46     O    0.41358   0.01216   0.21417   1.000
    O47     O    0.18671   0.18900   0.18242   1.000
    O48     O    0.43817   0.00524   0.28883   1.000
    O49     O    0.38221   0.96704   0.31066   1.000
    O50     O    0.03377   0.61691   0.35499   1.000
    O51     O    0.99485   0.56183   0.37701   1.000
    O52     O    0.98731   0.58690   0.45175   1.000
    O53     O    0.81016   0.81371   0.48392   1.000
    O54     O    0.92665   0.72758   0.48888   1.000
    O55     O    0.22110   0.52991   0.49888   1.000
    O56     O    0.77767   0.75139   0.50105   1.000
    O57     O    0.01103   0.57546   0.54789   1.000
    O58     O    0.19009   0.62410   0.51619   1.000
    O59     O    0.00380   0.55841   0.62263   1.000
    O60     O    0.96600   0.65185   0.64486   1.000
    O61     O    0.61747   0.34899   0.68921   1.000
    O62     O    0.56183   0.44236   0.71142   1.000
    O63     O    0.58649   0.42478   0.78600   1.000
    O64     O    0.81424   0.37620   0.81792   1.000
    O65     O    0.72786   0.34550   0.82282   1.000
    O66     O    0.52967   0.24813   0.83235   1.000
    O67     O    0.75124   0.47031   0.83532   1.000
    O68     O    0.57493   0.41218   0.88205   1.000
    O69     O    0.62423   0.18571   0.84960   1.000
    O70     O    0.55770   0.43664   0.95691   1.000
    O71     O    0.65154   0.38186   0.97907   1.000
    O72     O    0.89417   0.66525   0.50602   1.000
    O73     O    0.34527   0.92677   0.15490   1.000
    O74     O    0.43990   0.89588   0.17213   1.000
    O75     O    0.66486   0.43960   0.84022   1.000
    O76     O    0.07318   0.65452   0.51106   1.000
    O77     O    0.10419   0.56032   0.49375   1.000
    O78     O    0.65453   0.27201   0.84485   1.000
    O79     O    0.55997   0.33443   0.82760   1.000
    O80     O    0.33582   0.10434   0.15985   1.000
    N81     N    0.51308   0.57359   0.10237   1.000
    O82     O    0.47998   0.63791   0.12595   1.000
    O83     O    0.54211   0.50830   0.06172   1.000
    N84     N    0.42735   0.48646   0.56513   1.000
    O85     O    0.49208   0.45759   0.60611   1.000
    O86     O    0.36322   0.51945   0.54113   1.000
    N87     N    0.57269   0.91385   0.43486   1.000
    O88     O    0.63677   0.88257   0.45896   1.000
    O89     O    0.50808   0.94992   0.39394   1.000
    N90     N    0.48630   0.08555   0.89745   1.000
    O91     O    0.45761   0.04945   0.93830   1.000
    O92     O    0.51934   0.11683   0.87367   1.000
    N93     N    0.08727   0.42559   0.23126   1.000
    O94     O    0.11848   0.36158   0.20722   1.000
    O95     O    0.05103   0.49057   0.27204   1.000
    N96     N    0.99872   0.07771   0.00123   1.000
    N97     N    0.07744   0.92169   0.33343   1.000
    N98     N    0.92220   0.00017   0.66674   1.000
    N99     N    0.91374   0.51411   0.76886   1.000
    O100    O    0.88264   0.48108   0.79293   1.000
    O101    O    0.94946   0.54310   0.72790   1.000
loop_
    _geom_bond_atom_site_label_1
    _geom_bond_atom_site_label_2
    _geom_bond_distance
    _geom_bond_site_symmetry_2
    _ccdc_geom_bond_type
    Zr12   O39       0.63138      .   S
    Zr34   O39       0.63138      .   S
    Zr12   O40       0.64698  1_545   S
    Zr33   O40       0.64698      .   S
    Zr33   O41       1.09696      .   S
    Zr1    O41       1.09696      .   S
    Zr19   O42       0.64652      .   S
    Zr5    O42       0.64652      .   S
    Zr36   O43       0.63346      .   S
    Zr13   O43       0.63346      .   S
    Zr5    O44       0.63367      .   S
    Zr20   O44       0.63367      .   S
    Zr1    O45       1.13886  1_565   S
    Zr35   O45       1.13886      .   S
    Zr1    O46       1.09776  1_565   S
    Zr17   O46       1.09776      .   S
    Zr13   O47       0.64680      .   S
    Zr35   O47       0.64680      .   S
    Zr17   O48       0.64703      .   S
    Zr4    O48       0.64703  1_565   S
    Zr18   O49       0.63139      .   S
    Zr4    O49       0.63139      .   S
    Zr14   O50       0.63123      .   S
    Zr38   O50       0.63123      .   S
    Zr14   O51       0.64724  1_455   S
    Zr37   O51       0.64724      .   S
    Zr37   O52       1.09665      .   S
    Zr0    O52       1.09665      .   S
    Zr15   O53       0.64680      .   S
    Zr3    O53       0.64680      .   S
    Zr15   O54       1.13997      .   S
    Zr0    O54       1.13997      .   S
    Zr28   O55       0.63353      .   S
    Zr9    O55       0.63353      .   S
    Zr3    O56       0.63341      .   S
    Zr16   O56       0.63341      .   S
    Zr0    O57       1.09664  1_655   S
    Zr25   O57       1.09664      .   S
    Zr9    O58       0.64669      .   S
    Zr27   O58       0.64669      .   S
    Zr25   O59       0.64714      .   S
    Zr8    O59       0.64714  1_655   S
    Zr26   O60       0.63120      .   S
    Zr8    O60       0.63120      .   S
    Zr10   O61       0.63146      .   S
    Zr30   O61       0.63146      .   S
    Zr10   O62       0.64692      .   S
    Zr29   O62       0.64692      .   S
    Zr29   O63       1.09760      .   S
    Zr2    O63       1.09760      .   S
    Zr23   O64       0.64674      .   S
    Zr7    O64       0.64674      .   S
    Zr23   O65       1.13969      .   S
    Zr2    O65       1.13969      .   S
    Zr32   O66       0.63353      .   S
    Zr11   O66       0.63353      .   S
    Zr7    O67       0.63348      .   S
    Zr24   O67       0.63348      .   S
    Zr2    O68       1.09532      .   S
    Zr21   O68       1.09532      .   S
    Zr11   O69       0.64660      .   S
    Zr31   O69       0.64660      .   S
    Zr21   O70       0.64732      .   S
    Zr6    O70       0.64732      .   S
    Zr22   O71       0.63102      .   S
    Zr6    O71       0.63102      .   S
    Zr16   O72       1.18703      .   S
    Zr0    O72       1.18703      .   S
    Zr19   O73       1.14114      .   S
    Zr1    O73       1.14114      .   S
    Zr20   O74       1.18326      .   S
    Zr1    O74       1.18326      .   S
    Zr24   O75       1.18603      .   S
    Zr2    O75       1.18603      .   S
    Zr27   O76       1.14048      .   S
    Zr0    O76       1.14048  1_655   S
    Zr28   O77       1.18556      .   S
    Zr0    O77       1.18556  1_655   S
    Zr31   O78       1.14120      .   S
    Zr2    O78       1.14120      .   S
    Zr32   O79       1.18400      .   S
    Zr2    O79       1.18400      .   S
    Zr36   O80       1.18703      .   S
    Zr1    O80       1.18703  1_565   S
    N81    O82       0.83441      .   S
    Zr5    O82       1.55356      .   S
    N81    O83       1.04133      .   S
    Zr6    O83       1.75448  1_556   S
    N84    O85       1.04163      .   S
    Zr10   O85       1.75570      .   S
    N84    O86       0.83570      .   S
    Zr9    O86       1.55519      .   S
    N87    O88       0.83585      .   S
    Zr3    O88       1.55521      .   S
    N87    O89       1.04092      .   S
    Zr4    O89       1.75482      .   S
    N90    O91       1.04076      .   S
    Zr12   O91       1.75381  1_554   S
    N90    O92       0.83459      .   S
    Zr11   O92       1.55331      .   S
    N93    O94       0.83592      .   S
    Zr13   O94       1.55529      .   S
    N93    O95       1.04096      .   S
    Zr14   O95       1.75503      .   S
    N99    O100      0.83580      .   S
    Zr7    O100      1.55516      .   S
    N99    O101      1.04084      .   S
    Zr8    O101      1.75469      .   S
