# CIF file generated by openbabel 2.4.90, see http://openbabel.sf.net
data_I
_chemical_name_common ''
_cell_length_a 18.424
_cell_length_b 18.433
_cell_length_c 18.433
_cell_angle_alpha 60.144
_cell_angle_beta 60.154
_cell_angle_gamma 60.156
_space_group_name_H-M_alt 'P 1'
_space_group_name_Hall 'P 1'
loop_
    _symmetry_equiv_pos_as_xyz
    x,y,z
loop_
    _atom_site_label
    _atom_site_type_symbol
    _atom_site_fract_x
    _atom_site_fract_y
    _atom_site_fract_z
    _atom_site_occupancy
    H0      H    0.04820   0.56805   0.04860   1.000
    H1      H    0.56813   0.04792   0.33565   1.000
    H2      H    0.04804   0.33568   0.04752   1.000
    H3      H    0.33563   0.04836   0.56810   1.000
    H4      H    0.04805   0.04753   0.33566   1.000
    H5      H    0.56812   0.33566   0.04792   1.000
    H6      H    0.04821   0.04862   0.56804   1.000
    H7      H    0.33562   0.56817   0.04835   1.000
    H8      H    0.04816   0.33566   0.56814   1.000
    H9      H    0.56816   0.04837   0.04836   1.000
    H10     H    0.04816   0.56815   0.33565   1.000
    H11     H    0.33563   0.04779   0.04777   1.000
    H12     H    0.43188   0.95162   0.95161   1.000
    H13     H    0.95188   0.43184   0.66432   1.000
    H14     H    0.66440   0.95219   0.95220   1.000
    H15     H    0.95187   0.66432   0.43183   1.000
    H16     H    0.95198   0.95245   0.66431   1.000
    H17     H    0.66441   0.43182   0.95162   1.000
    H18     H    0.95183   0.95137   0.43193   1.000
    H19     H    0.43191   0.66432   0.95205   1.000
    H20     H    0.66441   0.95163   0.43180   1.000
    H21     H    0.95184   0.43194   0.95134   1.000
    H22     H    0.43190   0.95206   0.66432   1.000
    H23     H    0.95199   0.66431   0.95240   1.000
    C24     C    0.02670   0.53900   0.02694   1.000
    C25     C    0.53907   0.02654   0.40764   1.000
    C26     C    0.02661   0.40766   0.02632   1.000
    C27     C    0.40764   0.02679   0.53908   1.000
    C28     C    0.02661   0.02633   0.40765   1.000
    C29     C    0.53907   0.40765   0.02655   1.000
    C30     C    0.02671   0.02694   0.53899   1.000
    C31     C    0.40764   0.53908   0.02670   1.000
    C32     C    0.02668   0.40765   0.53900   1.000
    C33     C    0.53905   0.02680   0.02680   1.000
    C34     C    0.02668   0.53907   0.40764   1.000
    C35     C    0.40764   0.02647   0.02646   1.000
    C36     C    0.46098   0.97319   0.97317   1.000
    C37     C    0.97336   0.46091   0.59233   1.000
    C38     C    0.59239   0.97351   0.97350   1.000
    C39     C    0.97335   0.59233   0.46090   1.000
    C40     C    0.97342   0.97365   0.59232   1.000
    C41     C    0.59240   0.46090   0.97310   1.000
    C42     C    0.97333   0.97305   0.46098   1.000
    C43     C    0.46096   0.59233   0.97342   1.000
    C44     C    0.59240   0.97320   0.46089   1.000
    C45     C    0.97333   0.46099   0.97303   1.000
    C46     C    0.46096   0.97344   0.59233   1.000
    C47     C    0.97343   0.59232   0.97365   1.000
    C48     C    0.11097   0.38896   0.11096   1.000
    C49     C    0.05366   0.44631   0.05361   1.000
    C50     C    0.38904   0.11112   0.38911   1.000
    C51     C    0.44637   0.05369   0.44640   1.000
    C52     C    0.11099   0.11095   0.38895   1.000
    C53     C    0.05366   0.05362   0.44630   1.000
    C54     C    0.38903   0.38911   0.11114   1.000
    C55     C    0.44636   0.44641   0.05368   1.000
    C56     C    0.11112   0.38910   0.38909   1.000
    C57     C    0.05371   0.44639   0.44630   1.000
    C58     C    0.38897   0.11096   0.11095   1.000
    C59     C    0.44632   0.05364   0.05362   1.000
    C60     C    0.61106   0.88902   0.88900   1.000
    C61     C    0.55371   0.94634   0.94635   1.000
    C62     C    0.88891   0.61088   0.61088   1.000
    C63     C    0.94633   0.55359   0.55350   1.000
    C64     C    0.88904   0.88903   0.61102   1.000
    C65     C    0.94637   0.94636   0.55360   1.000
    C66     C    0.61100   0.61087   0.88880   1.000
    C67     C    0.55367   0.55358   0.94629   1.000
    C68     C    0.61100   0.88885   0.61086   1.000
    C69     C    0.55367   0.94630   0.55357   1.000
    C70     C    0.88906   0.61103   0.88901   1.000
    C71     C    0.94638   0.55367   0.94635   1.000
    O72     O    0.13320   0.42858   0.13317   1.000
    O73     O    0.42862   0.13337   0.30533   1.000
    O74     O    0.13295   0.30516   0.13295   1.000
    O75     O    0.30523   0.13326   0.42870   1.000
    O76     O    0.13294   0.13298   0.30515   1.000
    O77     O    0.42862   0.30534   0.13335   1.000
    O78     O    0.13320   0.13318   0.42857   1.000
    O79     O    0.30523   0.42872   0.13324   1.000
    O80     O    0.13329   0.30532   0.42869   1.000
    O81     O    0.42863   0.13317   0.13310   1.000
    O82     O    0.13329   0.42869   0.30531   1.000
    O83     O    0.30514   0.13295   0.13293   1.000
    O84     O    0.57141   0.86681   0.86681   1.000
    O85     O    0.86674   0.57129   0.69466   1.000
    O86     O    0.69490   0.86704   0.86704   1.000
    O87     O    0.86674   0.69466   0.57128   1.000
    O88     O    0.86710   0.86701   0.69482   1.000
    O89     O    0.69481   0.57126   0.86670   1.000
    O90     O    0.86683   0.86681   0.57140   1.000
    O91     O    0.57142   0.69465   0.86662   1.000
    O92     O    0.69480   0.86673   0.57125   1.000
    O93     O    0.86683   0.57140   0.86680   1.000
    O94     O    0.57141   0.86662   0.69464   1.000
    O95     O    0.86709   0.69482   0.86700   1.000
loop_
    _geom_bond_atom_site_label_1
    _geom_bond_atom_site_label_2
    _geom_bond_distance
    _geom_bond_site_symmetry_2
    _ccdc_geom_bond_type
    C26    H2        1.08862      .   S
    C26    C49       1.40316      .   S
    C26    C45       1.39018  1_454   S
    C35    H11       1.08863      .   S
    C35    C59       1.40330      .   S
    C35    C36       1.39089  1_544   S
    C29    H5        1.08860      .   S
    C29    C55       1.40316      .   S
    C29    C41       1.39029  1_554   S
    C31    H7        1.08861      .   S
    C31    C55       1.40318      .   S
    C31    C43       1.39029  1_554   S
    C33    H9        1.08860      .   S
    C33    C59       1.40338      .   S
    C33    C38       1.39102  1_544   S
    C24    H0        1.08828      .   S
    C24    C49       1.40333      .   S
    C24    C47       1.39018  1_454   S
    C49    C48       1.49580      .   S
    C59    C58       1.49620      .   S
    C55    C54       1.49531      .   S
    C58    O83       1.27734      .   S
    C58    O81       1.27637      .   S
    C48    O74       1.27733      .   S
    C48    O72       1.27713      .   S
    C54    O79       1.27711      .   S
    C54    O77       1.27714      .   S
    O76    C52       1.27739      .   S
    O82    C56       1.27714      .   S
    O73    C50       1.27713      .   S
    H1     C25       1.08859      .   S
    H10    C34       1.08860      .   S
    H4     C28       1.08869      .   S
    C52    O78       1.27705      .   S
    C52    C53       1.49581      .   S
    C56    O80       1.27716      .   S
    C56    C57       1.49433      .   S
    C50    O75       1.27708      .   S
    C50    C51       1.49529      .   S
    C25    C51       1.40319      .   S
    C25    C44       1.39026  1_545   S
    C34    C57       1.40307      .   S
    C34    C39       1.39020  1_455   S
    C28    C53       1.40308      .   S
    C28    C42       1.39020  1_445   S
    H20    C44       1.08860      .   S
    H15    C39       1.08859      .   S
    H18    C42       1.08860      .   S
    C57    C32       1.40350      .   S
    C53    C30       1.40342      .   S
    C51    C27       1.40319      .   S
    C44    C69       1.40320      .   S
    C39    C63       1.40204      .   S
    C42    C65       1.40230      .   S
    C30    H6        1.08860      .   S
    C30    C40       1.39019  1_445   S
    C32    H8        1.08867      .   S
    C32    C37       1.39111  1_455   S
    C27    H3        1.08851      .   S
    C27    C46       1.39026  1_545   S
    C63    C37       1.40332      .   S
    C63    C62       1.49654      .   S
    C69    C46       1.40317      .   S
    C69    C68       1.49530      .   S
    C65    C40       1.40421      .   S
    C65    C64       1.49581      .   S
    O92    C68       1.27712      .   S
    O87    C62       1.27716      .   S
    O90    C64       1.27704      .   S
    C40    H16       1.08869      .   S
    C37    H13       1.08860      .   S
    C46    H22       1.08859      .   S
    C68    O94       1.27713      .   S
    C62    O85       1.27713      .   S
    C64    O88       1.27739      .   S
    O91    C66       1.27714      .   S
    O89    C66       1.27711      .   S
    O93    C70       1.27710      .   S
    O84    C60       1.27689      .   S
    O95    C70       1.27729      .   S
    O86    C60       1.27740      .   S
    C66    C67       1.49531      .   S
    C60    C61       1.49653      .   S
    C70    C71       1.49572      .   S
    C67    C41       1.40318      .   S
    C67    C43       1.40316      .   S
    C61    C36       1.40339      .   S
    C61    C38       1.40313      .   S
    C71    C45       1.40333      .   S
    C71    C47       1.40329      .   S
    H21    C45       1.08870      .   S
    H12    C36       1.08860      .   S
    H17    C41       1.08860      .   S
    H19    C43       1.08858      .   S
    H14    C38       1.08864      .   S
    H23    C47       1.08854      .   S
