# CIF file generated by openbabel 2.4.90, see http://openbabel.sf.net
data_I
_chemical_name_common ''
_cell_length_a 18.424
_cell_length_b 18.433
_cell_length_c 18.433
_cell_angle_alpha 60.144
_cell_angle_beta 60.154
_cell_angle_gamma 60.156
_space_group_name_H-M_alt 'P 1'
_space_group_name_Hall 'P 1'
loop_
    _symmetry_equiv_pos_as_xyz
    x,y,z
loop_
    _atom_site_label
    _atom_site_type_symbol
    _atom_site_fract_x
    _atom_site_fract_y
    _atom_site_fract_z
    _atom_site_occupancy
    N0      N    0.50002   0.99999   0.99998   1.000
    N1      N    0.00002   0.49999   0.49997   1.000
    N2      N    0.00002   0.99999   0.49998   1.000
    N3      N    0.50002   0.49999   0.99997   1.000
    N4      N    0.50002   0.99999   0.49998   1.000
    N5      N    0.00002   0.49999   0.99998   1.000
    Zr6     Zr   0.75002   0.74994   0.74993   1.000
    Zr7     Zr   0.25001   0.25004   0.25004   1.000
    O8      O    0.16750   0.33259   0.33258   1.000
    O9      O    0.33257   0.33259   0.16751   1.000
    O10     O    0.33257   0.16752   0.33258   1.000
    O11     O    0.16745   0.33255   0.16746   1.000
    O12     O    0.16745   0.16747   0.33255   1.000
    O13     O    0.33255   0.16746   0.16745   1.000
    O14     O    0.83254   0.66739   0.66738   1.000
    O15     O    0.66747   0.66739   0.83245   1.000
    O16     O    0.66747   0.83246   0.66738   1.000
    O17     O    0.83258   0.66743   0.83250   1.000
    O18     O    0.83258   0.83251   0.66742   1.000
    O19     O    0.66749   0.83252   0.83251   1.000
loop_
    _geom_bond_atom_site_label_1
    _geom_bond_atom_site_label_2
    _geom_bond_distance
    _geom_bond_site_symmetry_2
    _ccdc_geom_bond_type
    Zr7    O8        2.15464      .   S
    N1     O8        4.36906      .   S
    Zr7    O9        2.15381      .   S
    N3     O9        4.36810  1_556   S
    Zr7    O10       2.15386      .   S
    N4     O10       4.36816  1_565   S
    Zr7    O11       2.15416      .   S
    N5     O11       4.36914  1_556   S
    Zr7    O12       2.15405      .   S
    N2     O12       4.36897  1_565   S
    Zr7    O13       2.15545      .   S
    N0     O13       4.37116  1_566   S
    N1     O14       4.36935  1_455   S
    Zr6    O14       2.15474      .   S
    N3     O15       4.36809      .   S
    Zr6    O15       2.15381      .   S
    N4     O16       4.36825      .   S
    Zr6    O16       2.15392      .   S
    Zr6    O17       2.15411      .   S
    N5     O17       4.36903  1_455   S
    Zr6    O18       2.15405      .   S
    N2     O18       4.36897  1_455   S
    Zr6    O19       2.15537      .   S
    N0     O19       4.37111      .   S
