# CIF file generated by openbabel 2.4.90, see http://openbabel.sf.net
data_I
_chemical_name_common ''
_cell_length_a 18.424
_cell_length_b 18.433
_cell_length_c 18.433
_cell_angle_alpha 60.144
_cell_angle_beta 60.154
_cell_angle_gamma 60.156
_space_group_name_H-M_alt 'P 1'
_space_group_name_Hall 'P 1'
loop_
    _symmetry_equiv_pos_as_xyz
    x,y,z
loop_
    _atom_site_label
    _atom_site_type_symbol
    _atom_site_fract_x
    _atom_site_fract_y
    _atom_site_fract_z
    _atom_site_occupancy
    N0      N    0.50002   0.99999   0.99998   1.000
    N1      N    0.00002   0.49999   0.49997   1.000
    N2      N    0.00002   0.99999   0.49998   1.000
    N3      N    0.50002   0.49999   0.99997   1.000
    N4      N    0.50002   0.99999   0.49998   1.000
    N5      N    0.00002   0.49999   0.99998   1.000
    Zr6     Zr   0.75002   0.74994   0.74993   1.000
    O7      O    0.83254   0.68596   0.64881   1.000
    O8      O    0.68605   0.83247   0.64881   1.000
    O9      O    0.83255   0.83248   0.64882   1.000
    O10     O    0.83261   0.68602   0.83254   1.000
    O11     O    0.68609   0.83255   0.83255   1.000
    O12     O    0.83261   0.83255   0.68602   1.000
    O13     O    0.64889   0.68597   0.83245   1.000
    O14     O    0.64889   0.83246   0.68596   1.000
    O15     O    0.64889   0.83249   0.83248   1.000
    O16     O    0.68605   0.64882   0.83245   1.000
    O17     O    0.83255   0.64883   0.83247   1.000
    O18     O    0.83254   0.64882   0.68595   1.000
    Zr19    Zr   0.25001   0.25004   0.25004   1.000
    O20     O    0.16750   0.35116   0.31401   1.000
    O21     O    0.31399   0.35117   0.16751   1.000
    O22     O    0.16749   0.35115   0.16750   1.000
    O23     O    0.35115   0.31402   0.16751   1.000
    O24     O    0.35115   0.16752   0.31401   1.000
    O25     O    0.35115   0.16749   0.16748   1.000
    O26     O    0.16750   0.31402   0.35116   1.000
    O27     O    0.31399   0.16752   0.35116   1.000
    O28     O    0.16749   0.16751   0.35114   1.000
    O29     O    0.16742   0.31396   0.16742   1.000
    O30     O    0.16742   0.16744   0.31395   1.000
    O31     O    0.31395   0.16743   0.16742   1.000
loop_
    _geom_bond_atom_site_label_1
    _geom_bond_atom_site_label_2
    _geom_bond_distance
    _geom_bond_site_symmetry_2
    _ccdc_geom_bond_type
    Zr6    O7        2.18189      .   S
    N1     O7        4.38278  1_455   S
    Zr6    O8        2.18117      .   S
    N4     O8        4.38164      .   S
    Zr6    O9        2.18138      .   S
    N2     O9        4.38219  1_455   S
    Zr6    O10       2.18117      .   S
    N5     O10       4.38276  1_455   S
    Zr6    O11       2.18248      .   S
    N0     O11       4.38474      .   S
    Zr6    O12       2.18112      .   S
    N2     O12       4.38269  1_455   S
    Zr6    O13       2.18089      .   S
    N3     O13       4.38161      .   S
    Zr6    O14       2.18099      .   S
    N4     O14       4.38177      .   S
    Zr6    O15       2.18259      .   S
    N0     O15       4.38439      .   S
    Zr6    O16       2.18106      .   S
    N3     O16       4.38148      .   S
    Zr6    O17       2.18144      .   S
    N5     O17       4.38224  1_455   S
    Zr6    O18       2.18186      .   S
    N1     O18       4.38281  1_455   S
    Zr19   O20       2.18178      .   S
    N1     O20       4.38250      .   S
    Zr19   O21       2.18106      .   S
    N3     O21       4.38149  1_556   S
    Zr19   O22       2.18148      .   S
    N5     O22       4.38237  1_556   S
    Zr19   O23       2.18089      .   S
    N3     O23       4.38162  1_556   S
    Zr19   O24       2.18096      .   S
    N4     O24       4.38166  1_565   S
    Zr19   O25       2.18270      .   S
    N0     O25       4.38439  1_566   S
    Zr19   O26       2.18178      .   S
    N1     O26       4.38251      .   S
    Zr19   O27       2.18109      .   S
    N4     O27       4.38157  1_565   S
    Zr19   O28       2.18137      .   S
    N2     O28       4.38220  1_565   S
    Zr19   O29       2.18124      .   S
    N5     O29       4.38285  1_556   S
    Zr19   O30       2.18113      .   S
    N2     O30       4.38269  1_565   S
    Zr19   O31       2.18251      .   S
    N0     O31       4.38483  1_566   S
