# CIF file generated by openbabel 2.4.90, see http://openbabel.sf.net
data_I
_chemical_name_common ''
_cell_length_a 18.424
_cell_length_b 18.433
_cell_length_c 18.433
_cell_angle_alpha 60.144
_cell_angle_beta 60.154
_cell_angle_gamma 60.156
_space_group_name_H-M_alt 'P 1'
_space_group_name_Hall 'P 1'
loop_
    _symmetry_equiv_pos_as_xyz
    x,y,z
loop_
    _atom_site_label
    _atom_site_type_symbol
    _atom_site_fract_x
    _atom_site_fract_y
    _atom_site_fract_z
    _atom_site_occupancy
    C0      C    0.20661   0.38047   0.20672   1.000
    C1      C    0.38048   0.20664   0.20664   1.000
    C2      C    0.20638   0.20636   0.20634   1.000
    C3      C    0.20661   0.20673   0.38047   1.000
    C4      C    0.61955   0.79334   0.79333   1.000
    C5      C    0.79343   0.61951   0.79325   1.000
    C6      C    0.79366   0.79362   0.79363   1.000
    C7      C    0.79342   0.79325   0.61950   1.000
    C8      C    0.04820   0.56805   0.04860   1.000
    C9      C    0.56813   0.04792   0.33565   1.000
    C10     C    0.04804   0.33568   0.04752   1.000
    C11     C    0.33563   0.04836   0.56810   1.000
    C12     C    0.04805   0.04753   0.33566   1.000
    C13     C    0.56812   0.33566   0.04792   1.000
    C14     C    0.04821   0.04862   0.56804   1.000
    C15     C    0.33562   0.56817   0.04835   1.000
    C16     C    0.04816   0.33566   0.56814   1.000
    C17     C    0.56816   0.04837   0.04836   1.000
    C18     C    0.04816   0.56815   0.33565   1.000
    C19     C    0.33563   0.04779   0.04777   1.000
    C20     C    0.43188   0.95162   0.95161   1.000
    C21     C    0.95188   0.43184   0.66432   1.000
    C22     C    0.66440   0.95219   0.95220   1.000
    C23     C    0.95187   0.66432   0.43183   1.000
    C24     C    0.95198   0.95245   0.66431   1.000
    C25     C    0.66441   0.43182   0.95162   1.000
    C26     C    0.95183   0.95137   0.43193   1.000
    C27     C    0.43191   0.66432   0.95205   1.000
    C28     C    0.66441   0.95163   0.43180   1.000
    C29     C    0.95184   0.43194   0.95134   1.000
    C30     C    0.43190   0.95206   0.66432   1.000
    C31     C    0.95199   0.66431   0.95240   1.000
    C32     C    0.02670   0.53900   0.02694   1.000
    C33     C    0.53907   0.02654   0.40764   1.000
    C34     C    0.02661   0.40766   0.02632   1.000
    C35     C    0.40764   0.02679   0.53908   1.000
    C36     C    0.02661   0.02633   0.40765   1.000
    C37     C    0.53907   0.40765   0.02655   1.000
    C38     C    0.02671   0.02694   0.53899   1.000
    C39     C    0.40764   0.53908   0.02670   1.000
    C40     C    0.02668   0.40765   0.53900   1.000
    C41     C    0.53905   0.02680   0.02680   1.000
    C42     C    0.02668   0.53907   0.40764   1.000
    C43     C    0.40764   0.02647   0.02646   1.000
    C44     C    0.46098   0.97319   0.97317   1.000
    C45     C    0.97336   0.46091   0.59233   1.000
    C46     C    0.59239   0.97351   0.97350   1.000
    C47     C    0.97335   0.59233   0.46090   1.000
    C48     C    0.97342   0.97365   0.59232   1.000
    C49     C    0.59240   0.46090   0.97310   1.000
    C50     C    0.97333   0.97305   0.46098   1.000
    C51     C    0.46096   0.59233   0.97342   1.000
    C52     C    0.59240   0.97320   0.46089   1.000
    C53     C    0.97333   0.46099   0.97303   1.000
    C54     C    0.46096   0.97344   0.59233   1.000
    C55     C    0.97343   0.59232   0.97365   1.000
    C56     C    0.11097   0.38896   0.11096   1.000
    C57     C    0.05366   0.44631   0.05361   1.000
    C58     C    0.38904   0.11112   0.38911   1.000
    C59     C    0.44637   0.05369   0.44640   1.000
    C60     C    0.11099   0.11095   0.38895   1.000
    C61     C    0.05366   0.05362   0.44630   1.000
    C62     C    0.38903   0.38911   0.11114   1.000
    C63     C    0.44636   0.44641   0.05368   1.000
    C64     C    0.11112   0.38910   0.38909   1.000
    C65     C    0.05371   0.44639   0.44630   1.000
    C66     C    0.38897   0.11096   0.11095   1.000
    C67     C    0.44632   0.05364   0.05362   1.000
    C68     C    0.61106   0.88902   0.88900   1.000
    C69     C    0.55371   0.94634   0.94635   1.000
    C70     C    0.88891   0.61088   0.61088   1.000
    C71     C    0.94633   0.55359   0.55350   1.000
    C72     C    0.88904   0.88903   0.61102   1.000
    C73     C    0.94637   0.94636   0.55360   1.000
    C74     C    0.61100   0.61087   0.88880   1.000
    C75     C    0.55367   0.55358   0.94629   1.000
    C76     C    0.61100   0.88885   0.61086   1.000
    C77     C    0.55367   0.94630   0.55357   1.000
    C78     C    0.88906   0.61103   0.88901   1.000
    C79     C    0.94638   0.55367   0.94635   1.000
    C80     C    0.24997   0.25001   0.25001   1.000
    C81     C    0.75006   0.74997   0.74996   1.000
    C82     C    0.13320   0.42858   0.13317   1.000
    C83     C    0.42862   0.13337   0.30533   1.000
    C84     C    0.13295   0.30516   0.13295   1.000
    C85     C    0.30523   0.13326   0.42870   1.000
    C86     C    0.13294   0.13298   0.30515   1.000
    C87     C    0.42862   0.30534   0.13335   1.000
    C88     C    0.13320   0.13318   0.42857   1.000
    C89     C    0.30523   0.42872   0.13324   1.000
    C90     C    0.13329   0.30532   0.42869   1.000
    C91     C    0.42863   0.13317   0.13310   1.000
    C92     C    0.13329   0.42869   0.30531   1.000
    C93     C    0.30514   0.13295   0.13293   1.000
    C94     C    0.57141   0.86681   0.86681   1.000
    C95     C    0.86674   0.57129   0.69466   1.000
    C96     C    0.69490   0.86704   0.86704   1.000
    C97     C    0.86674   0.69466   0.57128   1.000
    C98     C    0.86710   0.86701   0.69482   1.000
    C99     C    0.69481   0.57126   0.86670   1.000
    C100    C    0.86683   0.86681   0.57140   1.000
    C101    C    0.57142   0.69465   0.86662   1.000
    C102    C    0.69480   0.86673   0.57125   1.000
    C103    C    0.86683   0.57140   0.86680   1.000
    C104    C    0.57141   0.86662   0.69464   1.000
    C105    C    0.86709   0.69482   0.86700   1.000
    O106    O    0.03733   0.37167   0.03692   1.000
    O107    O    0.04013   0.42699   0.03997   1.000
    O108    O    0.99997   0.43432   0.99967   1.000
    O109    O    0.37164   0.03713   0.03711   1.000
    O110    O    0.42698   0.04006   0.04004   1.000
    O111    O    0.43431   0.99983   0.99981   1.000
    O112    O    0.55360   0.37165   0.03723   1.000
    O113    O    0.49272   0.42703   0.04012   1.000
    O114    O    0.56573   0.43427   0.99982   1.000
    O115    O    0.37163   0.55363   0.03753   1.000
    O116    O    0.42700   0.49275   0.04019   1.000
    O117    O    0.43430   0.56571   0.00006   1.000
    O118    O    0.55360   0.03758   0.03758   1.000
    O119    O    0.49269   0.04022   0.04021   1.000
    O120    O    0.56572   0.00015   0.00015   1.000
    O121    O    0.03745   0.55352   0.03777   1.000
    O122    O    0.04018   0.49265   0.04027   1.000
    O123    O    0.00006   0.56566   0.00030   1.000
    O124    O    0.08231   0.41763   0.08229   1.000
    O125    O    0.41765   0.08230   0.08229   1.000
    O126    O    0.41770   0.41776   0.08241   1.000
    O127    O    0.34706   0.12195   0.12194   1.000
    O128    O    0.40880   0.12206   0.12202   1.000
    O129    O    0.12196   0.34706   0.12196   1.000
    O130    O    0.12209   0.40877   0.12207   1.000
    O131    O    0.34713   0.40892   0.12219   1.000
    O132    O    0.40882   0.34723   0.12224   1.000
    O133    O    0.25576   0.16965   0.16963   1.000
    O134    O    0.16966   0.25576   0.16965   1.000
    O135    O    0.40455   0.16991   0.16987   1.000
    O136    O    0.16990   0.40452   0.16994   1.000
    O137    O    0.25592   0.40459   0.16998   1.000
    O138    O    0.40455   0.25599   0.16999   1.000
    O139    O    0.16966   0.16967   0.25575   1.000
    O140    O    0.31523   0.22833   0.22833   1.000
    O141    O    0.40455   0.17000   0.25598   1.000
    O142    O    0.22829   0.31524   0.22836   1.000
    O143    O    0.16995   0.40458   0.25601   1.000
    O144    O    0.12196   0.12197   0.34705   1.000
    O145    O    0.12221   0.40890   0.34720   1.000
    O146    O    0.40883   0.12224   0.34722   1.000
    O147    O    0.55360   0.03723   0.37165   1.000
    O148    O    0.03742   0.55361   0.37165   1.000
    O149    O    0.03733   0.03693   0.37166   1.000
    O150    O    0.16991   0.16995   0.40452   1.000
    O151    O    0.16995   0.25602   0.40458   1.000
    O152    O    0.25592   0.16999   0.40459   1.000
    O153    O    0.12210   0.12207   0.40876   1.000
    O154    O    0.08233   0.08229   0.41762   1.000
    O155    O    0.12221   0.34721   0.40889   1.000
    O156    O    0.08241   0.41774   0.41769   1.000
    O157    O    0.34713   0.12219   0.40890   1.000
    O158    O    0.41770   0.08241   0.41775   1.000
    O159    O    0.49272   0.04012   0.42702   1.000
    O160    O    0.56574   0.99987   0.43427   1.000
    O161    O    0.04019   0.49273   0.42697   1.000
    O162    O    0.00002   0.56570   0.43427   1.000
    O163    O    0.04014   0.03997   0.42697   1.000
    O164    O    0.99997   0.99969   0.43432   1.000
    O165    O    0.62840   0.96241   0.44634   1.000
    O166    O    0.96261   0.62833   0.44636   1.000
    O167    O    0.96258   0.96221   0.44646   1.000
    O168    O    0.04020   0.42702   0.49265   1.000
    O169    O    0.04019   0.04028   0.49264   1.000
    O170    O    0.42700   0.04024   0.49274   1.000
    O171    O    0.57303   0.95975   0.50723   1.000
    O172    O    0.95984   0.57296   0.50720   1.000
    O173    O    0.95985   0.95970   0.50729   1.000
    O174    O    0.03746   0.03778   0.55351   1.000
    O175    O    0.00007   0.00029   0.56565   1.000
    O176    O    0.03742   0.37166   0.55357   1.000
    O177    O    0.00002   0.43428   0.56566   1.000
    O178    O    0.37163   0.03757   0.55359   1.000
    O179    O    0.43430   0.00011   0.56571   1.000
    O180    O    0.95984   0.50725   0.57291   1.000
    O181    O    0.91762   0.58224   0.58219   1.000
    O182    O    0.50731   0.95987   0.57295   1.000
    O183    O    0.58233   0.91758   0.58221   1.000
    O184    O    0.95990   0.96001   0.57296   1.000
    O185    O    0.91771   0.91770   0.58231   1.000
    O186    O    0.65290   0.87779   0.59105   1.000
    O187    O    0.74411   0.82999   0.59537   1.000
    O188    O    0.87783   0.65277   0.59108   1.000
    O189    O    0.83008   0.74396   0.59539   1.000
    O190    O    0.87794   0.87792   0.59121   1.000
    O191    O    0.83013   0.83003   0.59545   1.000
    O192    O    0.96270   0.96305   0.62831   1.000
    O193    O    0.96262   0.44638   0.62833   1.000
    O194    O    0.44643   0.96275   0.62833   1.000
    O195    O    0.59121   0.87774   0.65275   1.000
    O196    O    0.87783   0.59109   0.65277   1.000
    O197    O    0.87807   0.87802   0.65292   1.000
    O198    O    0.59548   0.82998   0.74399   1.000
    O199    O    0.83008   0.59540   0.74396   1.000
    O200    O    0.83038   0.83031   0.74423   1.000
    O201    O    0.77174   0.68474   0.77160   1.000
    O202    O    0.68481   0.77166   0.77164   1.000
    O203    O    0.74412   0.59539   0.82998   1.000
    O204    O    0.83013   0.59546   0.83002   1.000
    O205    O    0.59549   0.74399   0.82998   1.000
    O206    O    0.59548   0.83008   0.83007   1.000
    O207    O    0.83038   0.74422   0.83031   1.000
    O208    O    0.74428   0.83033   0.83034   1.000
    O209    O    0.59121   0.65276   0.87771   1.000
    O210    O    0.65291   0.59107   0.87775   1.000
    O211    O    0.87795   0.59122   0.87790   1.000
    O212    O    0.59124   0.87792   0.87790   1.000
    O213    O    0.87808   0.65292   0.87800   1.000
    O214    O    0.65298   0.87803   0.87802   1.000
    O215    O    0.58234   0.58222   0.91754   1.000
    O216    O    0.58239   0.91768   0.91767   1.000
    O217    O    0.91772   0.58235   0.91768   1.000
    O218    O    0.57303   0.50724   0.95969   1.000
    O219    O    0.50732   0.57295   0.95986   1.000
    O220    O    0.50735   0.95976   0.95976   1.000
    O221    O    0.57305   0.95993   0.95993   1.000
    O222    O    0.95986   0.50733   0.95969   1.000
    O223    O    0.95990   0.57300   0.96000   1.000
    O224    O    0.96259   0.44646   0.96218   1.000
    O225    O    0.44643   0.96240   0.96239   1.000
    O226    O    0.62840   0.44636   0.96236   1.000
    O227    O    0.44644   0.62833   0.96273   1.000
    O228    O    0.62840   0.96285   0.96285   1.000
    O229    O    0.96271   0.62832   0.96303   1.000
    O230    O    0.22818   0.22819   0.22818   1.000
    O231    O    0.22829   0.22837   0.31524   1.000
    O232    O    0.77186   0.77180   0.77179   1.000
    O233    O    0.77174   0.77161   0.68473   1.000
loop_
    _geom_bond_atom_site_label_1
    _geom_bond_atom_site_label_2
    _geom_bond_distance
    _geom_bond_site_symmetry_2
    _ccdc_geom_bond_type
    C34    O106      0.54431      .   S
    C10    O106      0.54431      .   S
    C34    O107      0.70158      .   S
    C57    O107      0.70158      .   S
    C34    O108      0.69509  1_454   S
    C53    O108      0.69509      .   S
    C43    O109      0.54431      .   S
    C19    O109      0.54431      .   S
    C43    O110      0.70165      .   S
    C67    O110      0.70165      .   S
    C43    O111      0.69545  1_544   S
    C44    O111      0.69545      .   S
    C37    O112      0.54430      .   S
    C13    O112      0.54430      .   S
    C37    O113      0.70158      .   S
    C63    O113      0.70158      .   S
    C37    O114      0.69514  1_554   S
    C49    O114      0.69514      .   S
    C39    O115      0.54431      .   S
    C15    O115      0.54431      .   S
    C39    O116      0.70159      .   S
    C63    O116      0.70159      .   S
    C39    O117      0.69514      .   S
    C51    O117      0.69514  1_556   S
    C41    O118      0.54430      .   S
    C17    O118      0.54430      .   S
    C41    O119      0.70169      .   S
    C67    O119      0.70169      .   S
    C41    O120      0.69551      .   S
    C46    O120      0.69551  1_566   S
    C32    O121      0.54414      .   S
    C8     O121      0.54414      .   S
    C32    O122      0.70166      .   S
    C57    O122      0.70166      .   S
    C32    O123      0.69509      .   S
    C55    O123      0.69509  1_656   S
    C57    O124      0.74790      .   S
    C56    O124      0.74790      .   S
    C67    O125      0.74810      .   S
    C66    O125      0.74810      .   S
    C63    O126      0.74766      .   S
    C62    O126      0.74766      .   S
    C66    O127      0.63867      .   S
    C93    O127      0.63867      .   S
    C66    O128      0.63818      .   S
    C91    O128      0.63818      .   S
    C56    O129      0.63867      .   S
    C84    O129      0.63867      .   S
    C56    O130      0.63857      .   S
    C82    O130      0.63857      .   S
    C62    O131      0.63855      .   S
    C89    O131      0.63855      .   S
    C62    O132      0.63857      .   S
    C87    O132      0.63857      .   S
    C93    O133      0.98677      .   S
    C2     O133      0.98677      .   S
    C84    O134      0.98661      .   S
    C2     O134      0.98661      .   S
    C91    O135      0.98664      .   S
    C1     O135      0.98664      .   S
    C82    O136      0.98586      .   S
    C0     O136      0.98586      .   S
    C89    O137      0.98571      .   S
    C0     O137      0.98571      .   S
    C87    O138      0.98584      .   S
    C1     O138      0.98584      .   S
    C2     O139      0.98660      .   S
    C86    O139      0.98660      .   S
    C1     O140      0.98355      .   S
    C80    O140      0.98355      .   S
    C1     O141      0.98584      .   S
    C83    O141      0.98584      .   S
    C0     O142      0.98356      .   S
    C80    O142      0.98356      .   S
    C0     O143      0.98582      .   S
    C92    O143      0.98582      .   S
    C86    O144      0.63869      .   S
    C60    O144      0.63869      .   S
    C92    O145      0.63857      .   S
    C64    O145      0.63857      .   S
    C83    O146      0.63857      .   S
    C58    O146      0.63857      .   S
    C9     O147      0.54429      .   S
    C33    O147      0.54429      .   S
    C18    O148      0.54430      .   S
    C42    O148      0.54430      .   S
    C12    O149      0.54434      .   S
    C36    O149      0.54434      .   S
    C3     O150      0.98590      .   S
    C88    O150      0.98590      .   S
    C3     O151      0.98581      .   S
    C90    O151      0.98581      .   S
    C3     O152      0.98562      .   S
    C85    O152      0.98562      .   S
    C60    O153      0.63852      .   S
    C88    O153      0.63852      .   S
    C60    O154      0.74790      .   S
    C61    O154      0.74790      .   S
    C64    O155      0.63858      .   S
    C90    O155      0.63858      .   S
    C64    O156      0.74716      .   S
    C65    O156      0.74716      .   S
    C58    O157      0.63854      .   S
    C85    O157      0.63854      .   S
    C58    O158      0.74764      .   S
    C59    O158      0.74764      .   S
    C33    O159      0.70159      .   S
    C59    O159      0.70159      .   S
    C33    O160      0.69513  1_545   S
    C52    O160      0.69513      .   S
    C42    O161      0.70153      .   S
    C65    O161      0.70153      .   S
    C42    O162      0.69510      .   S
    C47    O162      0.69510  1_655   S
    C36    O163      0.70154      .   S
    C61    O163      0.70154      .   S
    C36    O164      0.69510  1_445   S
    C50    O164      0.69510      .   S
    C28    O165      0.54430      .   S
    C52    O165      0.54430      .   S
    C23    O166      0.54429      .   S
    C47    O166      0.54429      .   S
    C26    O167      0.54430      .   S
    C50    O167      0.54430      .   S
    C65    O168      0.70175      .   S
    C40    O168      0.70175      .   S
    C61    O169      0.70171      .   S
    C38    O169      0.70171      .   S
    C59    O170      0.70160      .   S
    C35    O170      0.70160      .   S
    C52    O171      0.70160      .   S
    C77    O171      0.70160      .   S
    C47    O172      0.70102      .   S
    C71    O172      0.70102      .   S
    C50    O173      0.70115      .   S
    C73    O173      0.70115      .   S
    C38    O174      0.54430      .   S
    C14    O174      0.54430      .   S
    C38    O175      0.69509      .   S
    C48    O175      0.69509  1_665   S
    C40    O176      0.54434      .   S
    C16    O176      0.54434      .   S
    C40    O177      0.69556      .   S
    C45    O177      0.69556  1_655   S
    C35    O178      0.54426      .   S
    C11    O178      0.54426      .   S
    C35    O179      0.69513      .   S
    C54    O179      0.69513  1_565   S
    C71    O180      0.70166      .   S
    C45    O180      0.70166      .   S
    C71    O181      0.74827      .   S
    C70    O181      0.74827      .   S
    C77    O182      0.70159      .   S
    C54    O182      0.70159      .   S
    C77    O183      0.74765      .   S
    C76    O183      0.74765      .   S
    C73    O184      0.70210      .   S
    C48    O184      0.70210      .   S
    C73    O185      0.74791      .   S
    C72    O185      0.74791      .   S
    C102   O186      0.63856      .   S
    C76    O186      0.63856      .   S
    C102   O187      0.98572      .   S
    C7     O187      0.98572      .   S
    C97    O188      0.63858      .   S
    C70    O188      0.63858      .   S
    C97    O189      0.98581      .   S
    C7     O189      0.98581      .   S
    C100   O190      0.63852      .   S
    C72    O190      0.63852      .   S
    C100   O191      0.98591      .   S
    C7     O191      0.98591      .   S
    C48    O192      0.54434      .   S
    C24    O192      0.54434      .   S
    C45    O193      0.54430      .   S
    C21    O193      0.54430      .   S
    C54    O194      0.54429      .   S
    C30    O194      0.54429      .   S
    C76    O195      0.63857      .   S
    C104   O195      0.63857      .   S
    C70    O196      0.63857      .   S
    C95    O196      0.63857      .   S
    C72    O197      0.63869      .   S
    C98    O197      0.63869      .   S
    C104   O198      0.98584      .   S
    C4     O198      0.98584      .   S
    C95    O199      0.98582      .   S
    C5     O199      0.98582      .   S
    C98    O200      0.98660      .   S
    C6     O200      0.98660      .   S
    C81    O201      0.98356      .   S
    C5     O201      0.98356      .   S
    C81    O202      0.98355      .   S
    C4     O202      0.98355      .   S
    C5     O203      0.98570      .   S
    C99    O203      0.98570      .   S
    C5     O204      0.98587      .   S
    C103   O204      0.98587      .   S
    C4     O205      0.98584      .   S
    C101   O205      0.98584      .   S
    C4     O206      0.98620      .   S
    C94    O206      0.98620      .   S
    C6     O207      0.98651      .   S
    C105   O207      0.98651      .   S
    C6     O208      0.98678      .   S
    C96    O208      0.98678      .   S
    C101   O209      0.63857      .   S
    C74    O209      0.63857      .   S
    C99    O210      0.63855      .   S
    C74    O210      0.63855      .   S
    C103   O211      0.63855      .   S
    C78    O211      0.63855      .   S
    C94    O212      0.63844      .   S
    C68    O212      0.63844      .   S
    C105   O213      0.63865      .   S
    C78    O213      0.63865      .   S
    C96    O214      0.63870      .   S
    C68    O214      0.63870      .   S
    C74    O215      0.74766      .   S
    C75    O215      0.74766      .   S
    C68    O216      0.74827      .   S
    C69    O216      0.74827      .   S
    C78    O217      0.74786      .   S
    C79    O217      0.74786      .   S
    C75    O218      0.70159      .   S
    C49    O218      0.70159      .   S
    C75    O219      0.70158      .   S
    C51    O219      0.70158      .   S
    C69    O220      0.70169      .   S
    C44    O220      0.70169      .   S
    C69    O221      0.70156      .   S
    C46    O221      0.70156      .   S
    C79    O222      0.70166      .   S
    C53    O222      0.70166      .   S
    C79    O223      0.70164      .   S
    C55    O223      0.70164      .   S
    C29    O224      0.54435      .   S
    C53    O224      0.54435      .   S
    C20    O225      0.54430      .   S
    C44    O225      0.54430      .   S
    C25    O226      0.54430      .   S
    C49    O226      0.54430      .   S
    C27    O227      0.54429      .   S
    C51    O227      0.54429      .   S
    C22    O228      0.54432      .   S
    C46    O228      0.54432      .   S
    C31    O229      0.54427      .   S
    C55    O229      0.54427      .   S
    C80    O230      0.98393      .   S
    C2     O230      0.98393      .   S
    C80    O231      0.98357      .   S
    C3     O231      0.98357      .   S
    C81    O232      0.98393      .   S
    C6     O232      0.98393      .   S
    C81    O233      0.98357      .   S
    C7     O233      0.98357      .   S
