# CIF file generated by openbabel 2.4.90, see http://openbabel.sf.net
data_I
_chemical_name_common ''
_cell_length_a 21.562
_cell_length_b 17.666
_cell_length_c 17.196
_cell_angle_alpha 89.986
_cell_angle_beta 89.955
_cell_angle_gamma 90.011
_space_group_name_H-M_alt 'P 1'
_space_group_name_Hall 'P 1'
loop_
    _symmetry_equiv_pos_as_xyz
    x,y,z
loop_
    _atom_site_label
    _atom_site_type_symbol
    _atom_site_fract_x
    _atom_site_fract_y
    _atom_site_fract_z
    _atom_site_occupancy
    H0      H    0.00530   0.29486   0.54915   1.000
    H1      H    0.50596   0.29513   0.54974   1.000
    H2      H    0.11408   0.09426   0.54177   1.000
    H3      H    0.61474   0.09442   0.54419   1.000
    H4      H    0.12294   0.40211   0.13883   1.000
    H5      H    0.62350   0.40142   0.13805   1.000
    H6      H    0.10532   0.30027   0.23629   1.000
    H7      H    0.60532   0.30032   0.23605   1.000
    H8      H    0.28896   0.46786   0.26007   1.000
    H9      H    0.78912   0.46754   0.25986   1.000
    H10     H    0.09648   0.45045   0.83879   1.000
    H11     H    0.59686   0.45133   0.83870   1.000
    H12     H    0.08457   0.35155   0.73666   1.000
    H13     H    0.58508   0.35198   0.73697   1.000
    H14     H    0.28125   0.49658   0.75710   1.000
    H15     H    0.78175   0.49713   0.75740   1.000
    H16     H    0.24373   0.70236   0.04988   1.000
    H17     H    0.74418   0.70301   0.04954   1.000
    H18     H    0.13513   0.90511   0.04154   1.000
    H19     H    0.63449   0.90440   0.04276   1.000
    H20     H    0.12720   0.59687   0.63816   1.000
    H21     H    0.62661   0.59728   0.63820   1.000
    H22     H    0.14562   0.69818   0.73585   1.000
    H23     H    0.64431   0.69908   0.73550   1.000
    H24     H    0.46120   0.53087   0.76073   1.000
    H25     H    0.96112   0.53219   0.76010   1.000
    H26     H    0.15341   0.54814   0.33959   1.000
    H27     H    0.65287   0.54688   0.33883   1.000
    H28     H    0.16529   0.64729   0.23762   1.000
    H29     H    0.66498   0.64575   0.23659   1.000
    H30     H    0.46809   0.50108   0.25746   1.000
    H31     H    0.96872   0.50189   0.25815   1.000
    H32     H    0.49443   0.79562   0.95010   1.000
    H33     H    0.99503   0.79549   0.95012   1.000
    H34     H    0.38504   0.59495   0.95520   1.000
    H35     H    0.88601   0.59480   0.95540   1.000
    H36     H    0.37606   0.90132   0.36104   1.000
    H37     H    0.87759   0.90210   0.35953   1.000
    H38     H    0.39410   0.80006   0.26309   1.000
    H39     H    0.89513   0.80104   0.26141   1.000
    H40     H    0.21093   0.96827   0.23865   1.000
    H41     H    0.71071   0.96739   0.23996   1.000
    H42     H    0.40315   0.95038   0.65949   1.000
    H43     H    0.90387   0.95072   0.66011   1.000
    H44     H    0.41509   0.85134   0.76157   1.000
    H45     H    0.91585   0.85164   0.76212   1.000
    H46     H    0.21863   0.99690   0.74158   1.000
    H47     H    0.71934   0.99704   0.74230   1.000
    H48     H    0.25547   0.20224   0.44964   1.000
    H49     H    0.75592   0.20234   0.44935   1.000
    H50     H    0.36472   0.40328   0.45546   1.000
    H51     H    0.86509   0.40431   0.45562   1.000
    H52     H    0.37236   0.09619   0.86075   1.000
    H53     H    0.87317   0.09819   0.86056   1.000
    H54     H    0.35446   0.19783   0.76324   1.000
    H55     H    0.85532   0.19946   0.76261   1.000
    H56     H    0.03786   0.03052   0.73736   1.000
    H57     H    0.53866   0.03137   0.73939   1.000
    H58     H    0.34749   0.04700   0.16073   1.000
    H59     H    0.84627   0.04748   0.15945   1.000
    H60     H    0.33535   0.14574   0.26309   1.000
    H61     H    0.83431   0.14710   0.26090   1.000
    H62     H    0.03087   0.00165   0.24131   1.000
    H63     H    0.53235   0.00142   0.24191   1.000
    C64     C    0.20807   0.44022   0.19169   1.000
    C65     C    0.70851   0.43976   0.19108   1.000
    C66     C    0.15574   0.39342   0.18612   1.000
    C67     C    0.65611   0.39303   0.18500   1.000
    C68     C    0.80192   0.03989   0.63355   1.000
    C69     C    0.33032   0.80455   0.86670   1.000
    C70     C    0.83106   0.80484   0.86740   1.000
    C71     C    0.21394   0.89228   0.85512   1.000
    C72     C    0.14603   0.33663   0.24085   1.000
    C73     C    0.64606   0.33660   0.24070   1.000
    C74     C    0.18764   0.32602   0.30266   1.000
    C75     C    0.68741   0.32615   0.30284   1.000
    C76     C    0.23890   0.37509   0.31019   1.000
    C77     C    0.73873   0.37519   0.31019   1.000
    C78     C    0.24888   0.43090   0.25395   1.000
    C79     C    0.74900   0.43067   0.25369   1.000
    C80     C    0.21962   0.50134   0.13351   1.000
    C81     C    0.72061   0.50063   0.13269   1.000
    C82     C    0.17122   0.26343   0.35881   1.000
    C83     C    0.67109   0.26370   0.35941   1.000
    C84     C    0.28324   0.37051   0.37714   1.000
    C85     C    0.78314   0.37092   0.37704   1.000
    C86     C    0.18947   0.48027   0.80440   1.000
    C87     C    0.68985   0.48108   0.80432   1.000
    C88     C    0.13424   0.43875   0.79840   1.000
    C89     C    0.63465   0.43949   0.79845   1.000
    C90     C    0.12775   0.38343   0.74110   1.000
    C91     C    0.62822   0.38393   0.74130   1.000
    C92     C    0.17651   0.36785   0.68974   1.000
    C93     C    0.67702   0.36830   0.69005   1.000
    C94     C    0.23242   0.40902   0.69589   1.000
    C95     C    0.73292   0.40945   0.69634   1.000
    C96     C    0.23802   0.46514   0.75268   1.000
    C97     C    0.73852   0.46570   0.75291   1.000
    C98     C    0.19849   0.53925   0.86601   1.000
    C99     C    0.69884   0.54026   0.86566   1.000
    O100    O    0.18932   0.24014   0.65353   1.000
    O101    O    0.69069   0.24074   0.65376   1.000
    O102    O    0.14161   0.31533   0.56700   1.000
    O103    O    0.64230   0.31535   0.56736   1.000
    O104    O    0.33765   0.42532   0.65750   1.000
    C105    C    0.16932   0.30461   0.63167   1.000
    C106    C    0.67015   0.30496   0.63201   1.000
    C107    C    0.28620   0.39155   0.64386   1.000
    C108    C    0.78657   0.39194   0.64430   1.000
    C109    C    0.04192   0.55933   0.69133   1.000
    C110    C    0.54177   0.55870   0.69163   1.000
    C111    C    0.09457   0.60559   0.68569   1.000
    C112    C    0.59397   0.60570   0.68579   1.000
    C113    C    0.10476   0.66211   0.74063   1.000
    C114    C    0.60377   0.66249   0.74054   1.000
    C115    C    0.06338   0.67292   0.80275   1.000
    C116    C    0.56250   0.67286   0.80284   1.000
    C117    C    0.01191   0.62414   0.81036   1.000
    C118    C    0.51142   0.62347   0.81065   1.000
    C119    C    0.00142   0.56877   0.75392   1.000
    C120    C    0.50124   0.56787   0.75429   1.000
    C121    C    0.02928   0.49846   0.63328   1.000
    C122    C    0.52986   0.49752   0.63355   1.000
    C123    C    0.07975   0.73570   0.85877   1.000
    C124    C    0.57873   0.73577   0.85887   1.000
    C125    C    0.46739   0.62751   0.87801   1.000
    C126    C    0.96763   0.62837   0.87741   1.000
    C127    C    0.06056   0.51804   0.30508   1.000
    C128    C    0.55989   0.51721   0.30450   1.000
    C129    C    0.11569   0.55980   0.29925   1.000
    C130    C    0.61516   0.55864   0.29851   1.000
    C131    C    0.12217   0.61526   0.24206   1.000
    C132    C    0.62176   0.61394   0.24119   1.000
    C133    C    0.07349   0.63069   0.19058   1.000
    C134    C    0.57302   0.62970   0.18990   1.000
    C135    C    0.01753   0.58964   0.19697   1.000
    C136    C    0.51698   0.58872   0.19623   1.000
    C137    C    0.01194   0.53335   0.25361   1.000
    C138    C    0.51135   0.53246   0.25289   1.000
    C139    C    0.05171   0.45860   0.36630   1.000
    C140    C    0.55084   0.45823   0.36612   1.000
    C141    C    0.08049   0.69368   0.13217   1.000
    C142    C    0.58043   0.69289   0.13179   1.000
    C143    C    0.46307   0.60680   0.14476   1.000
    C144    C    0.96375   0.60745   0.14524   1.000
    C145    C    0.29132   0.93994   0.30762   1.000
    C146    C    0.79202   0.94005   0.30766   1.000
    C147    C    0.34357   0.89307   0.31334   1.000
    C148    C    0.84454   0.89350   0.31250   1.000
    C149    C    0.35353   0.83661   0.25831   1.000
    C150    C    0.85421   0.83706   0.25735   1.000
    C151    C    0.31229   0.82654   0.19604   1.000
    C152    C    0.81233   0.82630   0.19582   1.000
    C153    C    0.26119   0.87584   0.18835   1.000
    C154    C    0.76077   0.87507   0.18912   1.000
    C155    C    0.25094   0.93123   0.24486   1.000
    C156    C    0.75095   0.93064   0.24567   1.000
    C157    C    0.27921   0.00055   0.36612   1.000
    C158    C    0.78047   0.00104   0.36610   1.000
    C159    C    0.32868   0.76422   0.13953   1.000
    C160    C    0.82878   0.76390   0.13926   1.000
    C161    C    0.21694   0.87151   0.12135   1.000
    C162    C    0.71586   0.87071   0.12271   1.000
    C163    C    0.31028   0.98034   0.69416   1.000
    C164    C    0.81103   0.98072   0.69491   1.000
    C165    C    0.36547   0.93872   0.69997   1.000
    C166    C    0.86619   0.93905   0.70058   1.000
    C167    C    0.37198   0.88336   0.75721   1.000
    C168    C    0.87273   0.88364   0.75780   1.000
    C169    C    0.32328   0.86794   0.80870   1.000
    C170    C    0.82405   0.86813   0.80930   1.000
    C171    C    0.26749   0.90932   0.80276   1.000
    C172    C    0.76816   0.90930   0.80329   1.000
    C173    C    0.26181   0.96537   0.74597   1.000
    C174    C    0.76252   0.96553   0.74665   1.000
    C175    C    0.30125   0.03911   0.63247   1.000
    C176    C    0.71447   0.89174   0.85533   1.000
    C177    C    0.45769   0.05850   0.80792   1.000
    C178    C    0.95767   0.05906   0.80670   1.000
    C179    C    0.40516   0.10498   0.81341   1.000
    C180    C    0.90563   0.10625   0.81272   1.000
    C181    C    0.39528   0.16169   0.75850   1.000
    C182    C    0.89579   0.16277   0.75765   1.000
    C183    C    0.43686   0.17254   0.69668   1.000
    C184    C    0.93695   0.17275   0.69516   1.000
    C185    C    0.48828   0.12369   0.68923   1.000
    C186    C    0.98789   0.12319   0.68730   1.000
    C187    C    0.49843   0.06805   0.74556   1.000
    C188    C    0.99798   0.06774   0.74381   1.000
    C189    C    0.46984   0.99752   0.86612   1.000
    C190    C    0.96993   0.99817   0.86500   1.000
    C191    C    0.42041   0.23495   0.64021   1.000
    C192    C    0.92063   0.23531   0.63880   1.000
    C193    C    0.03205   0.12699   0.62001   1.000
    C194    C    0.53288   0.12822   0.62251   1.000
    C195    C    0.44046   0.01739   0.19509   1.000
    C196    C    0.93912   0.01766   0.19420   1.000
    C197    C    0.38518   0.05876   0.20108   1.000
    C198    C    0.88397   0.05938   0.19974   1.000
    C199    C    0.37856   0.11395   0.25846   1.000
    C200    C    0.87745   0.11513   0.25660   1.000
    C201    C    0.42728   0.12954   0.30982   1.000
    C202    C    0.92617   0.13094   0.30789   1.000
    C203    C    0.48337   0.08882   0.30339   1.000
    C204    C    0.98209   0.08978   0.30180   1.000
    C205    C    0.48907   0.03271   0.24659   1.000
    C206    C    0.98768   0.03317   0.24562   1.000
    C207    C    0.44937   0.95827   0.13362   1.000
    C208    C    0.94822   0.95824   0.13315   1.000
    C209    C    0.41996   0.19270   0.36784   1.000
    C210    C    0.91918   0.19422   0.36594   1.000
    C211    C    0.03590   0.10776   0.35329   1.000
    C212    C    0.53717   0.10668   0.35516   1.000
    O213    O    0.27441   0.52775   0.13001   1.000
    O214    O    0.77540   0.52721   0.13006   1.000
    O215    O    0.17332   0.52205   0.09249   1.000
    O216    O    0.67478   0.52103   0.09065   1.000
    O217    O    0.19704   0.19862   0.34987   1.000
    O218    O    0.69646   0.19875   0.35002   1.000
    O219    O    0.12846   0.27851   0.40699   1.000
    O220    O    0.62912   0.27901   0.40863   1.000
    O221    O    0.31984   0.42491   0.38991   1.000
    O222    O    0.81909   0.42578   0.39022   1.000
    O223    O    0.28037   0.30920   0.41717   1.000
    O224    O    0.78106   0.30918   0.41653   1.000
    O225    O    0.24786   0.57865   0.86000   1.000
    O226    O    0.74874   0.57878   0.86046   1.000
    O227    O    0.15708   0.54463   0.91903   1.000
    O228    O    0.65691   0.54662   0.91786   1.000
    O229    O    0.83868   0.42348   0.65932   1.000
    O230    O    0.27687   0.34359   0.59023   1.000
    O231    O    0.77620   0.34606   0.58903   1.000
    O232    O    0.02414   0.31202   0.50000   1.000
    O233    O    0.52465   0.31204   0.50047   1.000
    O234    O    0.14431   0.12595   0.50765   1.000
    O235    O    0.64518   0.12558   0.50969   1.000
    O236    O    0.47473   0.47205   0.62999   1.000
    O237    O    0.97372   0.47429   0.62900   1.000
    O238    O    0.07513   0.47576   0.59260   1.000
    O239    O    0.57604   0.47582   0.59283   1.000
    O240    O    0.05332   0.80011   0.84984   1.000
    O241    O    0.55227   0.80024   0.85003   1.000
    O242    O    0.12261   0.72124   0.90692   1.000
    O243    O    0.62174   0.72142   0.90683   1.000
    O244    O    0.42975   0.57388   0.88961   1.000
    O245    O    0.93099   0.57394   0.88990   1.000
    O246    O    0.47161   0.68753   0.91981   1.000
    O247    O    0.97051   0.68938   0.91786   1.000
    O248    O    0.50163   0.41858   0.36014   1.000
    O249    O    0.00000   0.41872   0.36006   1.000
    O250    O    0.09298   0.45328   0.41945   1.000
    O251    O    0.59209   0.45315   0.41928   1.000
    O252    O    0.06121   0.75840   0.15429   1.000
    O253    O    0.56128   0.75764   0.15389   1.000
    O254    O    0.10711   0.68261   0.06680   1.000
    O255    O    0.60752   0.68178   0.06672   1.000
    O256    O    0.41178   0.57217   0.15729   1.000
    O257    O    0.91191   0.57489   0.15983   1.000
    O258    O    0.47208   0.65643   0.09266   1.000
    O259    O    0.97344   0.65456   0.09087   1.000
    O260    O    0.22497   0.68610   0.00048   1.000
    O261    O    0.72550   0.68669   0.00000   1.000
    O262    O    0.10488   0.87337   0.00781   1.000
    O263    O    0.60478   0.87285   0.00807   1.000
    O264    O    0.22401   0.02572   0.36998   1.000
    O265    O    0.72558   0.02717   0.36990   1.000
    O266    O    0.32533   0.02195   0.40701   1.000
    O267    O    0.82677   0.02198   0.40703   1.000
    O268    O    0.30407   0.69890   0.14970   1.000
    O269    O    0.80288   0.69908   0.14768   1.000
    O270    O    0.37003   0.78008   0.08968   1.000
    O271    O    0.87157   0.77904   0.09110   1.000
    O272    O    0.18161   0.92669   0.10707   1.000
    O273    O    0.67984   0.92553   0.10970   1.000
    O274    O    0.21849   0.80905   0.08299   1.000
    O275    O    0.71771   0.80893   0.08330   1.000
    O276    O    0.25141   0.07774   0.63719   1.000
    O277    O    0.75258   0.07928   0.63969   1.000
    O278    O    0.34325   0.04496   0.58026   1.000
    O279    O    0.84321   0.04540   0.58043   1.000
    O280    O    0.30916   0.74048   0.84536   1.000
    O281    O    0.81053   0.74058   0.84587   1.000
    O282    O    0.35912   0.81470   0.93069   1.000
    O283    O    0.85906   0.81537   0.93194   1.000
    O284    O    0.16203   0.92436   0.84013   1.000
    O285    O    0.66247   0.92359   0.84000   1.000
    O286    O    0.22409   0.84638   0.91043   1.000
    O287    O    0.72446   0.84570   0.91052   1.000
    O288    O    0.47546   0.81201   0.99946   1.000
    O289    O    0.97623   0.81231   0.99935   1.000
    O290    O    0.35486   0.62626   0.99013   1.000
    O291    O    0.85580   0.62597   0.99032   1.000
    O292    O    0.02489   0.97199   0.86680   1.000
    O293    O    0.52511   0.97253   0.86982   1.000
    O294    O    0.42378   0.97558   0.90690   1.000
    O295    O    0.92453   0.97736   0.90756   1.000
    O296    O    0.44533   0.30013   0.64979   1.000
    O297    O    0.94690   0.29990   0.64720   1.000
    O298    O    0.37882   0.21899   0.59077   1.000
    O299    O    0.87775   0.22040   0.59077   1.000
    O300    O    0.06837   0.07235   0.60721   1.000
    O301    O    0.56890   0.07335   0.60943   1.000
    O302    O    0.02940   0.18816   0.57973   1.000
    O303    O    0.53100   0.18998   0.58304   1.000
    O304    O    0.99736   0.91851   0.13943   1.000
    O305    O    0.49846   0.91844   0.13975   1.000
    O306    O    0.40806   0.95319   0.08052   1.000
    O307    O    0.90695   0.95298   0.08003   1.000
    O308    O    0.44016   0.25706   0.34000   1.000
    O309    O    0.93874   0.25884   0.34373   1.000
    O310    O    0.39202   0.18209   0.43242   1.000
    O311    O    0.89236   0.18331   0.43120   1.000
    O312    O    0.08753   0.07444   0.33948   1.000
    O313    O    0.58908   0.07450   0.34020   1.000
    O314    O    0.02643   0.15586   0.40673   1.000
    O315    O    0.52748   0.15337   0.40991   1.000
    O316    O    0.27418   0.18578   0.49903   1.000
    O317    O    0.77468   0.18600   0.49870   1.000
    O318    O    0.39472   0.37185   0.49029   1.000
    O319    O    0.89515   0.37276   0.49001   1.000
loop_
    _geom_bond_atom_site_label_1
    _geom_bond_atom_site_label_2
    _geom_bond_distance
    _geom_bond_site_symmetry_2
    _ccdc_geom_bond_type
    O260   H16       0.98410      .   S
    O262   H18       1.03768      .   S
    O263   H19       1.03800      .   S
    H17    O261      0.98566      .   S
    O255   C142      1.27700      .   S
    O254   C141      1.27685      .   S
    O307   C208      1.27905      .   S
    O306   C207      1.27920      .   S
    O274   C161      1.28620      .   S
    O275   C162      1.28548      .   S
    O270   C159      1.26753      .   S
    O216   C81       1.27674      .   S
    O259   C144      1.26871      .   S
    O271   C160      1.26783      .   S
    O215   C80       1.27635      .   S
    O258   C143      1.26820      .   S
    O272   C161      1.26145      .   S
    O273   C162      1.26163      .   S
    C161   C153      1.49848      .   S
    C162   C154      1.49976      .   S
    O213   C80       1.27167      .   S
    O214   C81       1.27204      .   S
    C142   O253      1.27415      .   S
    C142   C134      1.50653      .   S
    C141   O252      1.27470      .   S
    C141   C133      1.50636      .   S
    C81    C65       1.49382      .   S
    C208   O304      1.27582      .   S
    C208   C196      1.49753  1_565   S
    C80    C64       1.49257      .   S
    C207   O305      1.27553      .   S
    C207   C195      1.49843  1_565   S
    H5     C67       1.08133      .   S
    H4     C66       1.08892      .   S
    C160   O269      1.28208      .   S
    C160   C152      1.51234      .   S
    C159   O268      1.28185      .   S
    C159   C151      1.51042      .   S
    C143   O256      1.28172      .   S
    C143   C136      1.49614      .   S
    C144   O257      1.28154      .   S
    C144   C135      1.49555  1_655   S
    H59    C198      1.08905      .   S
    H58    C197      1.08908      .   S
    C67    C65       1.40303      .   S
    C67    C73       1.39914      .   S
    C66    C64       1.40195      .   S
    C66    C72       1.39122      .   S
    C153   C151      1.41084      .   S
    C153   C155      1.39675      .   S
    C154   C152      1.41146      .   S
    C154   C156      1.39796      .   S
    C134   C136      1.41247      .   S
    C134   C132      1.40053      .   S
    C133   C135      1.41179      .   S
    C133   C131      1.40053      .   S
    C65    C79       1.39595      .   S
    C64    C78       1.39613      .   S
    C196   C198      1.40247      .   S
    C196   C206      1.39798      .   S
    C195   C197      1.40216      .   S
    C195   C205      1.39899      .   S
    C152   C150      1.40445      .   S
    C151   C149      1.40377      .   S
    C136   C138      1.39685      .   S
    C135   C137      1.39690      .   S
    C198   C200      1.39500      .   S
    C197   C199      1.39451      .   S
    H7     C73       1.09039      .   S
    H6     C72       1.09034      .   S
    H29    C132      1.09086      .   S
    H28    C131      1.09081      .   S
    H40    C155      1.08822      .   S
    H41    C156      1.08829      .   S
    C73    C75       1.40426      .   S
    C72    C74       1.40398      .   S
    C132   C130      1.39482      .   S
    H62    C206      1.08766  1_455   S
    H63    C205      1.08772      .   S
    C131   C129      1.39497      .   S
    C155   C145      1.39573      .   S
    C206   C204      1.39585      .   S
    C156   C146      1.39632      .   S
    C205   C203      1.39706      .   S
    C138   H30       1.08774      .   S
    C138   C128      1.39900      .   S
    C137   H31       1.08778  1_455   S
    C137   C127      1.39893      .   S
    C79    H9        1.08818      .   S
    C79    C77       1.39733      .   S
    C78    H8        1.08826      .   S
    C78    C76       1.39741      .   S
    C200   H61       1.09081      .   S
    C200   C202      1.40033      .   S
    C150   H39       1.09037      .   S
    C150   C148      1.39188      .   S
    C149   H38       1.09039      .   S
    C149   C147      1.39158      .   S
    C199   H60       1.09080      .   S
    C199   C201      1.40036      .   S
    C130   C128      1.40219      .   S
    C130   H27       1.08903      .   S
    C129   C127      1.40236      .   S
    C129   H26       1.08916      .   S
    C204   C202      1.41195      .   S
    C204   C211      1.49426  1_655   S
    C74    C76       1.41070      .   S
    C74    C82       1.50970      .   S
    C75    C77       1.41111      .   S
    C75    C83       1.51193      .   S
    C203   C201      1.41164      .   S
    C203   C212      1.49641      .   S
    C128   C140      1.49845      .   S
    C127   C139      1.49877      .   S
    C145   C147      1.40184      .   S
    C145   C157      1.49228  1_565   S
    C146   C148      1.40217      .   S
    C146   C158      1.49435  1_565   S
    C202   C210      1.50641      .   S
    C201   C209      1.50520      .   S
    C77    C85       1.49856      .   S
    C76    C84       1.49924      .   S
    C148   H37       1.08900      .   S
    C147   H36       1.08891      .   S
    O312   C211      1.28147      .   S
    O308   C209      1.30797      .   S
    O313   C212      1.28138      .   S
    O309   C210      1.27513      .   S
    O217   C82       1.28240      .   S
    O218   C83       1.28140      .   S
    C211   O314      1.26826      .   S
    C212   O315      1.26909      .   S
    C82    O219      1.26743      .   S
    C83    O220      1.26788      .   S
    O249   C139      1.32320      .   S
    O248   C140      1.27558      .   S
    C210   O311      1.27662      .   S
    C158   O265      1.27216      .   S
    C158   O267      1.27658      .   S
    C140   O251      1.27908      .   S
    C157   O264      1.27221      .   S
    C157   O266      1.27579      .   S
    C139   O250      1.27959      .   S
    C209   O310      1.27672      .   S
    C85    O222      1.26161      .   S
    C85    O224      1.28553      .   S
    C84    O221      1.26274      .   S
    C84    O223      1.28474      .   S
    H49    O317      0.98358      .   S
    H48    O316      0.98441      .   S
    H50    O318      1.04217      .   S
    H51    O319      1.03972      .   S
    O232   H0        0.98520      .   S
    O233   H1        0.98427      .   S
    O234   H2        1.04002      .   S
    O235   H3        1.04159      .   S
    O102   C105      1.27694      .   S
    O103   C106      1.27717      .   S
    O302   C193      1.28469      .   S
    O278   C175      1.27887      .   S
    O279   C68       1.27867      .   S
    O303   C194      1.28531      .   S
    O231   C108      1.26918      .   S
    O230   C107      1.26860      .   S
    O299   C192      1.26785      .   S
    O298   C191      1.26803      .   S
    O238   C121      1.27543      .   S
    O239   C122      1.27590      .   S
    O300   C193      1.26234      .   S
    O301   C194      1.26238      .   S
    C193   C186      1.49949  1_455   S
    C194   C185      1.49866      .   S
    O237   C121      1.27390  1_655   S
    O236   C122      1.27246      .   S
    C105   O100      1.27464      .   S
    C105   C92       1.50668      .   S
    C106   O101      1.27419      .   S
    C106   C93       1.50688      .   S
    C175   O276      1.27577      .   S
    C175   C163      1.49705  1_545   S
    C121   C109      1.49267      .   S
    C68    O277      1.27577      .   S
    C68    C164      1.49815  1_545   S
    C122   C110      1.49415      .   S
    H20    C111      1.08906      .   S
    H21    C112      1.08912      .   S
    C192   O297      1.28205      .   S
    C192   C184      1.51141      .   S
    C191   O296      1.28120      .   S
    C191   C183      1.51146      .   S
    C107   O104      1.28138      .   S
    C107   C94       1.49629      .   S
    C108   O229      1.28066      .   S
    C108   C95       1.49434      .   S
    H42    C165      1.08902      .   S
    H43    C166      1.08899      .   S
    C111   C109      1.40192      .   S
    C111   C113      1.39222      .   S
    C112   C110      1.40213      .   S
    C112   C114      1.39218      .   S
    C186   C184      1.41125      .   S
    C186   C188      1.39680      .   S
    C185   C183      1.41088      .   S
    C185   C187      1.39728      .   S
    C92    C94       1.41186      .   S
    C92    C90       1.39996      .   S
    C93    C95       1.41176      .   S
    C93    C91       1.39955      .   S
    C109   C119      1.39558      .   S
    C110   C120      1.39622      .   S
    C163   C165      1.40247      .   S
    C163   C173      1.39797      .   S
    C164   C166      1.40233      .   S
    C164   C174      1.39852      .   S
    C184   C182      1.40427      .   S
    C94    C96       1.39713      .   S
    C95    C97       1.39607      .   S
    C183   C181      1.40309      .   S
    C165   C167      1.39466      .   S
    C166   C168      1.39504      .   S
    H23    C114      1.09040      .   S
    H22    C113      1.09040      .   S
    H12    C90       1.09075      .   S
    H13    C91       1.09070      .   S
    H56    C188      1.08816  1_455   S
    H57    C187      1.08812      .   S
    C114   C116      1.40418      .   S
    C113   C115      1.40429      .   S
    C90    C88       1.39501      .   S
    C91    C89       1.39614      .   S
    H46    C173      1.08762      .   S
    H47    C174      1.08761      .   S
    C188   C178      1.39533      .   S
    C187   C177      1.39586      .   S
    C173   C171      1.39613      .   S
    C174   C172      1.39635      .   S
    C96    H14       1.08763      .   S
    C96    C86       1.39890      .   S
    C97    H15       1.08764      .   S
    C97    C87       1.39830      .   S
    C119   H25       1.08799  1_455   S
    C119   C117      1.39667      .   S
    C120   H24       1.08823      .   S
    C120   C118      1.39751      .   S
    C167   H44       1.09077      .   S
    C167   C169      1.39967      .   S
    C182   H55       1.09039      .   S
    C182   C180      1.39228      .   S
    C168   H45       1.09085      .   S
    C168   C170      1.39984      .   S
    C181   H54       1.09052      .   S
    C181   C179      1.39305      .   S
    C88    C86       1.40244      .   S
    C88    H10       1.08967      .   S
    C89    C87       1.40237      .   S
    C89    H11       1.08903      .   S
    C115   C117      1.41100      .   S
    C115   C123      1.51114      .   S
    C171   C169      1.41141      .   S
    C171   C71       1.49420      .   S
    C116   C118      1.41128      .   S
    C116   C124      1.51215      .   S
    C172   C170      1.41151      .   S
    C172   C176      1.49519      .   S
    C87    C99       1.49797      .   S
    C86    C98       1.49887      .   S
    C178   C180      1.40181      .   S
    C178   C190      1.49402  1_545   S
    C177   C179      1.40208      .   S
    C177   C189      1.49361  1_545   S
    C169   C69       1.50726      .   S
    C170   C70       1.50691      .   S
    C117   C126      1.49824  1_455   S
    C118   C125      1.49878      .   S
    C180   H53       1.08905      .   S
    C179   H52       1.08904      .   S
    O285   C176      1.28215      .   S
    O284   C71       1.28108      .   S
    O280   C69       1.27434      .   S
    O281   C70       1.27367      .   S
    O240   C123      1.28188      .   S
    O241   C124      1.28297      .   S
    C71    O286      1.26883      .   S
    C176   O287      1.26833      .   S
    C123   O242      1.26738      .   S
    C124   O243      1.26718      .   S
    O225   C98       1.27587      .   S
    O226   C99       1.27614      .   S
    C190   O292      1.27262  1_655   S
    C190   O295      1.27565      .   S
    C99    O228      1.27849      .   S
    C98    O227      1.27917      .   S
    C189   O293      1.27258      .   S
    C189   O294      1.27557      .   S
    C69    O282      1.27654      .   S
    C70    O283      1.27742      .   S
    C126   O245      1.26270      .   S
    C126   O247      1.28442      .   S
    C125   O244      1.26315      .   S
    C125   O246      1.28438      .   S
    H32    O288      0.98554      .   S
    H33    O289      0.98437      .   S
    H34    O290      1.04396      .   S
    H35    O291      1.04302      .   S
