# CIF file generated by openbabel 2.4.90, see http://openbabel.sf.net
data_I
_chemical_name_common ''
_cell_length_a 21.562
_cell_length_b 17.666
_cell_length_c 17.196
_cell_angle_alpha 89.986
_cell_angle_beta 89.955
_cell_angle_gamma 90.011
_space_group_name_H-M_alt 'P 1'
_space_group_name_Hall 'P 1'
loop_
    _symmetry_equiv_pos_as_xyz
    x,y,z
loop_
    _atom_site_label
    _atom_site_type_symbol
    _atom_site_fract_x
    _atom_site_fract_y
    _atom_site_fract_z
    _atom_site_occupancy
    C0      C    0.08008   0.21251   0.48413   1.000
    C1      C    0.58114   0.21260   0.48648   1.000
    C2      C    0.28778   0.65982   0.91964   1.000
    C3      C    0.78879   0.65990   0.91986   1.000
    C4      C    0.33615   0.60276   0.10058   1.000
    C5      C    0.83693   0.60279   0.10067   1.000
    C6      C    0.16275   0.60361   0.01639   1.000
    C7      C    0.66387   0.60374   0.01621   1.000
    C8      C    0.17018   0.78695   0.98578   1.000
    C9      C    0.66945   0.78665   0.98590   1.000
    C10     C    0.46164   0.33755   0.41985   1.000
    C11     C    0.96176   0.33766   0.41908   1.000
    C12     C    0.41345   0.39658   0.60035   1.000
    C13     C    0.91432   0.39685   0.60015   1.000
    C14     C    0.08584   0.39418   0.51650   1.000
    C15     C    0.58669   0.39416   0.51650   1.000
    C16     C    0.41898   0.71277   0.01349   1.000
    C17     C    0.91995   0.71280   0.01359   1.000
    C18     C    0.21081   0.15960   0.57948   1.000
    C19     C    0.71219   0.15982   0.58003   1.000
    C20     C    0.16309   0.10264   0.39693   1.000
    C21     C    0.66410   0.10267   0.39919   1.000
    C22     C    0.33618   0.10338   0.48317   1.000
    C23     C    0.83727   0.10400   0.48300   1.000
    C24     C    0.33054   0.28486   0.51332   1.000
    C25     C    0.82975   0.28687   0.51330   1.000
    C26     C    0.03919   0.83822   0.08000   1.000
    C27     C    0.53860   0.83762   0.07989   1.000
    C28     C    0.08574   0.89671   0.89708   1.000
    C29     C    0.58640   0.89646   0.89713   1.000
    C30     C    0.41340   0.89403   0.98333   1.000
    C31     C    0.91433   0.89443   0.98295   1.000
    C32     C    0.00530   0.29486   0.54915   1.000
    C33     C    0.50596   0.29513   0.54974   1.000
    C34     C    0.11408   0.09426   0.54177   1.000
    C35     C    0.61474   0.09442   0.54419   1.000
    C36     C    0.12294   0.40211   0.13883   1.000
    C37     C    0.62350   0.40142   0.13805   1.000
    C38     C    0.10532   0.30027   0.23629   1.000
    C39     C    0.60532   0.30032   0.23605   1.000
    C40     C    0.28896   0.46786   0.26007   1.000
    C41     C    0.78912   0.46754   0.25986   1.000
    C42     C    0.09648   0.45045   0.83879   1.000
    C43     C    0.59686   0.45133   0.83870   1.000
    C44     C    0.08457   0.35155   0.73666   1.000
    C45     C    0.58508   0.35198   0.73697   1.000
    C46     C    0.28125   0.49658   0.75710   1.000
    C47     C    0.78175   0.49713   0.75740   1.000
    C48     C    0.24373   0.70236   0.04988   1.000
    C49     C    0.74418   0.70301   0.04954   1.000
    C50     C    0.13513   0.90511   0.04154   1.000
    C51     C    0.63449   0.90440   0.04276   1.000
    C52     C    0.12720   0.59687   0.63816   1.000
    C53     C    0.62661   0.59728   0.63820   1.000
    C54     C    0.14562   0.69818   0.73585   1.000
    C55     C    0.64431   0.69908   0.73550   1.000
    C56     C    0.46120   0.53087   0.76073   1.000
    C57     C    0.96112   0.53219   0.76010   1.000
    C58     C    0.15341   0.54814   0.33959   1.000
    C59     C    0.65287   0.54688   0.33883   1.000
    C60     C    0.16529   0.64729   0.23762   1.000
    C61     C    0.66498   0.64575   0.23659   1.000
    C62     C    0.46809   0.50108   0.25746   1.000
    C63     C    0.96872   0.50189   0.25815   1.000
    C64     C    0.49443   0.79562   0.95010   1.000
    C65     C    0.99503   0.79549   0.95012   1.000
    C66     C    0.38504   0.59495   0.95520   1.000
    C67     C    0.88601   0.59480   0.95540   1.000
    C68     C    0.37606   0.90132   0.36104   1.000
    C69     C    0.87759   0.90210   0.35953   1.000
    C70     C    0.39410   0.80006   0.26309   1.000
    C71     C    0.89513   0.80104   0.26141   1.000
    C72     C    0.21093   0.96827   0.23865   1.000
    C73     C    0.71071   0.96739   0.23996   1.000
    C74     C    0.40315   0.95038   0.65949   1.000
    C75     C    0.90387   0.95072   0.66011   1.000
    C76     C    0.41509   0.85134   0.76157   1.000
    C77     C    0.91585   0.85164   0.76212   1.000
    C78     C    0.21863   0.99690   0.74158   1.000
    C79     C    0.71934   0.99704   0.74230   1.000
    C80     C    0.25547   0.20224   0.44964   1.000
    C81     C    0.75592   0.20234   0.44935   1.000
    C82     C    0.36472   0.40328   0.45546   1.000
    C83     C    0.86509   0.40431   0.45562   1.000
    C84     C    0.37236   0.09619   0.86075   1.000
    C85     C    0.87317   0.09819   0.86056   1.000
    C86     C    0.35446   0.19783   0.76324   1.000
    C87     C    0.85532   0.19946   0.76261   1.000
    C88     C    0.03786   0.03052   0.73736   1.000
    C89     C    0.53866   0.03137   0.73939   1.000
    C90     C    0.34749   0.04700   0.16073   1.000
    C91     C    0.84627   0.04748   0.15945   1.000
    C92     C    0.33535   0.14574   0.26309   1.000
    C93     C    0.83431   0.14710   0.26090   1.000
    C94     C    0.03087   0.00165   0.24131   1.000
    C95     C    0.53235   0.00142   0.24191   1.000
    C96     C    0.20807   0.44022   0.19169   1.000
    C97     C    0.70851   0.43976   0.19108   1.000
    C98     C    0.15574   0.39342   0.18612   1.000
    C99     C    0.65611   0.39303   0.18500   1.000
    C100    C    0.14603   0.33663   0.24085   1.000
    C101    C    0.64606   0.33660   0.24070   1.000
    C102    C    0.18764   0.32602   0.30266   1.000
    C103    C    0.68741   0.32615   0.30284   1.000
    C104    C    0.23890   0.37509   0.31019   1.000
    C105    C    0.73873   0.37519   0.31019   1.000
    C106    C    0.24888   0.43090   0.25395   1.000
    C107    C    0.74900   0.43067   0.25369   1.000
    C108    C    0.21962   0.50134   0.13351   1.000
    C109    C    0.72061   0.50063   0.13269   1.000
    C110    C    0.17122   0.26343   0.35881   1.000
    C111    C    0.67109   0.26370   0.35941   1.000
    C112    C    0.28324   0.37051   0.37714   1.000
    C113    C    0.78314   0.37092   0.37704   1.000
    C114    C    0.18947   0.48027   0.80440   1.000
    C115    C    0.68985   0.48108   0.80432   1.000
    C116    C    0.13424   0.43875   0.79840   1.000
    C117    C    0.63465   0.43949   0.79845   1.000
    C118    C    0.12775   0.38343   0.74110   1.000
    C119    C    0.62822   0.38393   0.74130   1.000
    C120    C    0.17651   0.36785   0.68974   1.000
    C121    C    0.67702   0.36830   0.69005   1.000
    C122    C    0.23242   0.40902   0.69589   1.000
    C123    C    0.73292   0.40945   0.69634   1.000
    C124    C    0.23802   0.46514   0.75268   1.000
    C125    C    0.73852   0.46570   0.75291   1.000
    C126    C    0.19849   0.53925   0.86601   1.000
    C127    C    0.69884   0.54026   0.86566   1.000
    C128    C    0.16932   0.30461   0.63167   1.000
    C129    C    0.67015   0.30496   0.63201   1.000
    C130    C    0.28620   0.39155   0.64386   1.000
    C131    C    0.78657   0.39194   0.64430   1.000
    C132    C    0.04192   0.55933   0.69133   1.000
    C133    C    0.54177   0.55870   0.69163   1.000
    C134    C    0.09457   0.60559   0.68569   1.000
    C135    C    0.59397   0.60570   0.68579   1.000
    C136    C    0.10476   0.66211   0.74063   1.000
    C137    C    0.60377   0.66249   0.74054   1.000
    C138    C    0.06338   0.67292   0.80275   1.000
    C139    C    0.56250   0.67286   0.80284   1.000
    C140    C    0.01191   0.62414   0.81036   1.000
    C141    C    0.51142   0.62347   0.81065   1.000
    C142    C    0.00142   0.56877   0.75392   1.000
    C143    C    0.50124   0.56787   0.75429   1.000
    C144    C    0.02928   0.49846   0.63328   1.000
    C145    C    0.52986   0.49752   0.63355   1.000
    C146    C    0.07975   0.73570   0.85877   1.000
    C147    C    0.57873   0.73577   0.85887   1.000
    C148    C    0.46739   0.62751   0.87801   1.000
    C149    C    0.96763   0.62837   0.87741   1.000
    C150    C    0.06056   0.51804   0.30508   1.000
    C151    C    0.55989   0.51721   0.30450   1.000
    C152    C    0.11569   0.55980   0.29925   1.000
    C153    C    0.61516   0.55864   0.29851   1.000
    C154    C    0.12217   0.61526   0.24206   1.000
    C155    C    0.62176   0.61394   0.24119   1.000
    C156    C    0.07349   0.63069   0.19058   1.000
    C157    C    0.57302   0.62970   0.18990   1.000
    C158    C    0.01753   0.58964   0.19697   1.000
    C159    C    0.51698   0.58872   0.19623   1.000
    C160    C    0.01194   0.53335   0.25361   1.000
    C161    C    0.51135   0.53246   0.25289   1.000
    C162    C    0.05171   0.45860   0.36630   1.000
    C163    C    0.55084   0.45823   0.36612   1.000
    C164    C    0.08049   0.69368   0.13217   1.000
    C165    C    0.58043   0.69289   0.13179   1.000
    C166    C    0.46307   0.60680   0.14476   1.000
    C167    C    0.96375   0.60745   0.14524   1.000
    C168    C    0.29132   0.93994   0.30762   1.000
    C169    C    0.79202   0.94005   0.30766   1.000
    C170    C    0.34357   0.89307   0.31334   1.000
    C171    C    0.84454   0.89350   0.31250   1.000
    C172    C    0.35353   0.83661   0.25831   1.000
    C173    C    0.85421   0.83706   0.25735   1.000
    C174    C    0.31229   0.82654   0.19604   1.000
    C175    C    0.81233   0.82630   0.19582   1.000
    C176    C    0.26119   0.87584   0.18835   1.000
    C177    C    0.76077   0.87507   0.18912   1.000
    C178    C    0.25094   0.93123   0.24486   1.000
    C179    C    0.75095   0.93064   0.24567   1.000
    C180    C    0.27921   0.00055   0.36612   1.000
    C181    C    0.78047   0.00104   0.36610   1.000
    C182    C    0.32868   0.76422   0.13953   1.000
    C183    C    0.82878   0.76390   0.13926   1.000
    C184    C    0.21694   0.87151   0.12135   1.000
    C185    C    0.71586   0.87071   0.12271   1.000
    C186    C    0.31028   0.98034   0.69416   1.000
    C187    C    0.81103   0.98072   0.69491   1.000
    C188    C    0.36547   0.93872   0.69997   1.000
    C189    C    0.86619   0.93905   0.70058   1.000
    C190    C    0.37198   0.88336   0.75721   1.000
    C191    C    0.87273   0.88364   0.75780   1.000
    C192    C    0.32328   0.86794   0.80870   1.000
    C193    C    0.82405   0.86813   0.80930   1.000
    C194    C    0.26749   0.90932   0.80276   1.000
    C195    C    0.76816   0.90930   0.80329   1.000
    C196    C    0.26181   0.96537   0.74597   1.000
    C197    C    0.76252   0.96553   0.74665   1.000
    C198    C    0.30125   0.03911   0.63247   1.000
    C199    C    0.80192   0.03989   0.63355   1.000
    C200    C    0.33032   0.80455   0.86670   1.000
    C201    C    0.83106   0.80484   0.86740   1.000
    C202    C    0.21394   0.89228   0.85512   1.000
    C203    C    0.71447   0.89174   0.85533   1.000
    C204    C    0.45769   0.05850   0.80792   1.000
    C205    C    0.95767   0.05906   0.80670   1.000
    C206    C    0.40516   0.10498   0.81341   1.000
    C207    C    0.90563   0.10625   0.81272   1.000
    C208    C    0.39528   0.16169   0.75850   1.000
    C209    C    0.89579   0.16277   0.75765   1.000
    C210    C    0.43686   0.17254   0.69668   1.000
    C211    C    0.93695   0.17275   0.69516   1.000
    C212    C    0.48828   0.12369   0.68923   1.000
    C213    C    0.98789   0.12319   0.68730   1.000
    C214    C    0.49843   0.06805   0.74556   1.000
    C215    C    0.99798   0.06774   0.74381   1.000
    C216    C    0.46984   0.99752   0.86612   1.000
    C217    C    0.96993   0.99817   0.86500   1.000
    C218    C    0.42041   0.23495   0.64021   1.000
    C219    C    0.92063   0.23531   0.63880   1.000
    C220    C    0.03205   0.12699   0.62001   1.000
    C221    C    0.53288   0.12822   0.62251   1.000
    C222    C    0.44046   0.01739   0.19509   1.000
    C223    C    0.93912   0.01766   0.19420   1.000
    C224    C    0.38518   0.05876   0.20108   1.000
    C225    C    0.88397   0.05938   0.19974   1.000
    C226    C    0.37856   0.11395   0.25846   1.000
    C227    C    0.87745   0.11513   0.25660   1.000
    C228    C    0.42728   0.12954   0.30982   1.000
    C229    C    0.92617   0.13094   0.30789   1.000
    C230    C    0.48337   0.08882   0.30339   1.000
    C231    C    0.98209   0.08978   0.30180   1.000
    C232    C    0.48907   0.03271   0.24659   1.000
    C233    C    0.98768   0.03317   0.24562   1.000
    C234    C    0.44937   0.95827   0.13362   1.000
    C235    C    0.94822   0.95824   0.13315   1.000
    C236    C    0.41996   0.19270   0.36784   1.000
    C237    C    0.91918   0.19422   0.36594   1.000
    C238    C    0.03590   0.10776   0.35329   1.000
    C239    C    0.53717   0.10668   0.35516   1.000
    C240    C    0.27441   0.52775   0.13001   1.000
    C241    C    0.77540   0.52721   0.13006   1.000
    C242    C    0.17332   0.52205   0.09249   1.000
    C243    C    0.67478   0.52103   0.09065   1.000
    C244    C    0.19704   0.19862   0.34987   1.000
    C245    C    0.69646   0.19875   0.35002   1.000
    C246    C    0.12846   0.27851   0.40699   1.000
    C247    C    0.62912   0.27901   0.40863   1.000
    C248    C    0.31984   0.42491   0.38991   1.000
    C249    C    0.81909   0.42578   0.39022   1.000
    C250    C    0.28037   0.30920   0.41717   1.000
    C251    C    0.78106   0.30918   0.41653   1.000
    C252    C    0.24786   0.57865   0.86000   1.000
    C253    C    0.74874   0.57878   0.86046   1.000
    C254    C    0.15708   0.54463   0.91903   1.000
    C255    C    0.65691   0.54662   0.91786   1.000
    C256    C    0.18932   0.24014   0.65353   1.000
    C257    C    0.69069   0.24074   0.65376   1.000
    C258    C    0.14161   0.31533   0.56700   1.000
    C259    C    0.64230   0.31535   0.56736   1.000
    C260    C    0.33765   0.42532   0.65750   1.000
    C261    C    0.83868   0.42348   0.65932   1.000
    C262    C    0.27687   0.34359   0.59023   1.000
    C263    C    0.77620   0.34606   0.58903   1.000
    C264    C    0.02414   0.31202   0.50000   1.000
    C265    C    0.52465   0.31204   0.50047   1.000
    C266    C    0.14431   0.12595   0.50765   1.000
    C267    C    0.64518   0.12558   0.50969   1.000
    C268    C    0.47473   0.47205   0.62999   1.000
    C269    C    0.97372   0.47429   0.62900   1.000
    C270    C    0.07513   0.47576   0.59260   1.000
    C271    C    0.57604   0.47582   0.59283   1.000
    C272    C    0.05332   0.80011   0.84984   1.000
    C273    C    0.55227   0.80024   0.85003   1.000
    C274    C    0.12261   0.72124   0.90692   1.000
    C275    C    0.62174   0.72142   0.90683   1.000
    C276    C    0.42975   0.57388   0.88961   1.000
    C277    C    0.93099   0.57394   0.88990   1.000
    C278    C    0.47161   0.68753   0.91981   1.000
    C279    C    0.97051   0.68938   0.91786   1.000
    C280    C    0.50163   0.41858   0.36014   1.000
    C281    C    0.00000   0.41872   0.36006   1.000
    C282    C    0.09298   0.45328   0.41945   1.000
    C283    C    0.59209   0.45315   0.41928   1.000
    C284    C    0.06121   0.75840   0.15429   1.000
    C285    C    0.56128   0.75764   0.15389   1.000
    C286    C    0.10711   0.68261   0.06680   1.000
    C287    C    0.60752   0.68178   0.06672   1.000
    C288    C    0.41178   0.57217   0.15729   1.000
    C289    C    0.91191   0.57489   0.15983   1.000
    C290    C    0.47208   0.65643   0.09266   1.000
    C291    C    0.97344   0.65456   0.09087   1.000
    C292    C    0.22497   0.68610   0.00048   1.000
    C293    C    0.72550   0.68669   0.00000   1.000
    C294    C    0.10488   0.87337   0.00781   1.000
    C295    C    0.60478   0.87285   0.00807   1.000
    C296    C    0.22401   0.02572   0.36998   1.000
    C297    C    0.72558   0.02717   0.36990   1.000
    C298    C    0.32533   0.02195   0.40701   1.000
    C299    C    0.82677   0.02198   0.40703   1.000
    C300    C    0.30407   0.69890   0.14970   1.000
    C301    C    0.80288   0.69908   0.14768   1.000
    C302    C    0.37003   0.78008   0.08968   1.000
    C303    C    0.87157   0.77904   0.09110   1.000
    C304    C    0.18161   0.92669   0.10707   1.000
    C305    C    0.67984   0.92553   0.10970   1.000
    C306    C    0.21849   0.80905   0.08299   1.000
    C307    C    0.71771   0.80893   0.08330   1.000
    C308    C    0.25141   0.07774   0.63719   1.000
    C309    C    0.75258   0.07928   0.63969   1.000
    C310    C    0.34325   0.04496   0.58026   1.000
    C311    C    0.84321   0.04540   0.58043   1.000
    C312    C    0.30916   0.74048   0.84536   1.000
    C313    C    0.81053   0.74058   0.84587   1.000
    C314    C    0.35912   0.81470   0.93069   1.000
    C315    C    0.85906   0.81537   0.93194   1.000
    C316    C    0.16203   0.92436   0.84013   1.000
    C317    C    0.66247   0.92359   0.84000   1.000
    C318    C    0.22409   0.84638   0.91043   1.000
    C319    C    0.72446   0.84570   0.91052   1.000
    C320    C    0.47546   0.81201   0.99946   1.000
    C321    C    0.97623   0.81231   0.99935   1.000
    C322    C    0.35486   0.62626   0.99013   1.000
    C323    C    0.85580   0.62597   0.99032   1.000
    C324    C    0.02489   0.97199   0.86680   1.000
    C325    C    0.52511   0.97253   0.86982   1.000
    C326    C    0.42378   0.97558   0.90690   1.000
    C327    C    0.92453   0.97736   0.90756   1.000
    C328    C    0.44533   0.30013   0.64979   1.000
    C329    C    0.94690   0.29990   0.64720   1.000
    C330    C    0.37882   0.21899   0.59077   1.000
    C331    C    0.87775   0.22040   0.59077   1.000
    C332    C    0.06837   0.07235   0.60721   1.000
    C333    C    0.56890   0.07335   0.60943   1.000
    C334    C    0.02940   0.18816   0.57973   1.000
    C335    C    0.53100   0.18998   0.58304   1.000
    C336    C    0.99736   0.91851   0.13943   1.000
    C337    C    0.49846   0.91844   0.13975   1.000
    C338    C    0.40806   0.95319   0.08052   1.000
    C339    C    0.90695   0.95298   0.08003   1.000
    C340    C    0.44016   0.25706   0.34000   1.000
    C341    C    0.93874   0.25884   0.34373   1.000
    C342    C    0.39202   0.18209   0.43242   1.000
    C343    C    0.89236   0.18331   0.43120   1.000
    C344    C    0.08753   0.07444   0.33948   1.000
    C345    C    0.58908   0.07450   0.34020   1.000
    C346    C    0.02643   0.15586   0.40673   1.000
    C347    C    0.52748   0.15337   0.40991   1.000
    C348    C    0.27418   0.18578   0.49903   1.000
    C349    C    0.77468   0.18600   0.49870   1.000
    C350    C    0.39472   0.37185   0.49029   1.000
    C351    C    0.89515   0.37276   0.49001   1.000
    O352    O    0.23435   0.69423   0.02518   1.000
    O353    O    0.25637   0.67296   0.96006   1.000
    O354    O    0.12001   0.88924   0.02468   1.000
    O355    O    0.07204   0.85580   0.04391   1.000
    O356    O    0.61963   0.88863   0.02542   1.000
    O357    O    0.57169   0.85524   0.04398   1.000
    O358    O    0.39451   0.74642   0.05159   1.000
    O359    O    0.44553   0.68460   0.05308   1.000
    O360    O    0.44530   0.70015   0.96665   1.000
    O361    O    0.94669   0.68368   0.05223   1.000
    O362    O    0.89576   0.74592   0.05235   1.000
    O363    O    0.94523   0.70109   0.96573   1.000
    O364    O    0.63569   0.64276   0.04147   1.000
    O365    O    0.66932   0.56239   0.05343   1.000
    O366    O    0.66039   0.57518   0.96704   1.000
    O367    O    0.13493   0.64311   0.04160   1.000
    O368    O    0.16803   0.56283   0.05444   1.000
    O369    O    0.15991   0.57412   0.96771   1.000
    O370    O    0.73484   0.69485   0.02477   1.000
    O371    O    0.59398   0.68734   0.09926   1.000
    O372    O    0.09380   0.68815   0.09949   1.000
    O373    O    0.51853   0.87803   0.10982   1.000
    O374    O    0.54994   0.79763   0.11689   1.000
    O375    O    0.01828   0.87837   0.10972   1.000
    O376    O    0.05020   0.79831   0.11715   1.000
    O377    O    0.92759   0.95561   0.10659   1.000
    O378    O    0.91064   0.92370   0.03149   1.000
    O379    O    0.42872   0.95573   0.10707   1.000
    O380    O    0.41073   0.92361   0.03193   1.000
    O381    O    0.21772   0.84028   0.10217   1.000
    O382    O    0.19434   0.79800   0.03439   1.000
    O383    O    0.71679   0.83982   0.10301   1.000
    O384    O    0.69358   0.79779   0.03460   1.000
    O385    O    0.34936   0.77215   0.11461   1.000
    O386    O    0.69769   0.51083   0.11167   1.000
    O387    O    0.96859   0.63101   0.11806   1.000
    O388    O    0.85018   0.77147   0.11518   1.000
    O389    O    0.19647   0.51170   0.11300   1.000
    O390    O    0.46757   0.63161   0.11871   1.000
    O391    O    0.30528   0.56525   0.11530   1.000
    O392    O    0.32011   0.65083   0.12514   1.000
    O393    O    0.37396   0.58746   0.12894   1.000
    O394    O    0.80616   0.56500   0.11537   1.000
    O395    O    0.81990   0.65093   0.12418   1.000
    O396    O    0.87442   0.58884   0.13025   1.000
    O397    O    0.19927   0.89910   0.11421   1.000
    O398    O    0.69785   0.89812   0.11621   1.000
    O399    O    0.23907   0.87368   0.15485   1.000
    O400    O    0.73832   0.87289   0.15591   1.000
    O401    O    0.24701   0.51455   0.13176   1.000
    O402    O    0.74800   0.51392   0.13138   1.000
    O403    O    0.57085   0.72526   0.14284   1.000
    O404    O    0.57672   0.66129   0.16085   1.000
    O405    O    0.07085   0.72604   0.14323   1.000
    O406    O    0.07699   0.66219   0.16138   1.000
    O407    O    0.71456   0.47020   0.16189   1.000
    O408    O    0.97279   0.93838   0.13629   1.000
    O409    O    0.94367   0.98795   0.16368   1.000
    O410    O    0.21384   0.47078   0.16260   1.000
    O411    O    0.47392   0.93835   0.13669   1.000
    O412    O    0.44492   0.98783   0.16436   1.000
    O413    O    0.63980   0.39723   0.16153   1.000
    O414    O    0.13934   0.39777   0.16248   1.000
    O415    O    0.81583   0.73149   0.14347   1.000
    O416    O    0.82056   0.79510   0.16754   1.000
    O417    O    0.31638   0.73156   0.14462   1.000
    O418    O    0.32049   0.79538   0.16779   1.000
    O419    O    0.43742   0.58948   0.15103   1.000
    O420    O    0.49002   0.59776   0.17050   1.000
    O421    O    0.93783   0.59117   0.15254   1.000
    O422    O    0.99064   0.59855   0.17111   1.000
    O423    O    0.86512   0.05343   0.17960   1.000
    O424    O    0.36633   0.05288   0.18091   1.000
    O425    O    0.68231   0.41640   0.18804   1.000
    O426    O    0.65109   0.36481   0.21285   1.000
    O427    O    0.18190   0.41682   0.18891   1.000
    O428    O    0.15088   0.36503   0.21349   1.000
    O429    O    0.28674   0.85119   0.19220   1.000
    O430    O    0.25607   0.90353   0.21661   1.000
    O431    O    0.78655   0.85069   0.19247   1.000
    O432    O    0.75586   0.90286   0.21740   1.000
    O433    O    0.54500   0.60921   0.19307   1.000
    O434    O    0.59739   0.62182   0.21555   1.000
    O435    O    0.04551   0.61017   0.19378   1.000
    O436    O    0.09783   0.62298   0.21632   1.000
    O437    O    0.72875   0.43521   0.22239   1.000
    O438    O    0.22847   0.43556   0.22282   1.000
    O439    O    0.91155   0.03852   0.19697   1.000
    O440    O    0.96340   0.02541   0.21991   1.000
    O441    O    0.41282   0.03807   0.19809   1.000
    O442    O    0.46477   0.02505   0.22084   1.000
    O443    O    0.83327   0.83168   0.22659   1.000
    O444    O    0.33291   0.83157   0.22718   1.000
    O445    O    0.51416   0.56059   0.22456   1.000
    O446    O    0.01474   0.56150   0.22529   1.000
    O447    O    0.88071   0.08726   0.22817   1.000
    O448    O    0.38187   0.08635   0.22977   1.000
    O449    O    0.62569   0.31846   0.23838   1.000
    O450    O    0.12568   0.31845   0.23857   1.000
    O451    O    0.64337   0.62985   0.23889   1.000
    O452    O    0.14373   0.63128   0.23984   1.000
    O453    O    0.23094   0.94975   0.24176   1.000
    O454    O    0.73083   0.94902   0.24282   1.000
    O455    O    0.66674   0.33137   0.27177   1.000
    O456    O    0.16683   0.33132   0.27176   1.000
    O457    O    0.61846   0.58629   0.26985   1.000
    O458    O    0.00928   0.01741   0.24347   1.000
    O459    O    0.51071   0.01707   0.24425   1.000
    O460    O    0.11893   0.58753   0.27066   1.000
    O461    O    0.27113   0.93558   0.27624   1.000
    O462    O    0.98488   0.06147   0.27371   1.000
    O463    O    0.77148   0.93535   0.27667   1.000
    O464    O    0.48622   0.06076   0.27499   1.000
    O465    O    0.48972   0.51677   0.25518   1.000
    O466    O    0.53562   0.52483   0.27870   1.000
    O467    O    0.99033   0.51762   0.25588   1.000
    O468    O    0.03625   0.52570   0.27935   1.000
    O469    O    0.76906   0.44910   0.25678   1.000
    O470    O    0.74387   0.40293   0.28194   1.000
    O471    O    0.26892   0.44938   0.25701   1.000
    O472    O    0.24389   0.40299   0.28207   1.000
    O473    O    0.85588   0.13112   0.25875   1.000
    O474    O    0.90181   0.12304   0.28225   1.000
    O475    O    0.87467   0.81905   0.25938   1.000
    O476    O    0.84937   0.86528   0.28493   1.000
    O477    O    0.37381   0.81834   0.26070   1.000
    O478    O    0.34855   0.86484   0.28583   1.000
    O479    O    0.35696   0.12984   0.26078   1.000
    O480    O    0.40292   0.12174   0.28414   1.000
    O481    O    0.58753   0.53793   0.30151   1.000
    O482    O    0.63402   0.55276   0.31867   1.000
    O483    O    0.08812   0.53892   0.30217   1.000
    O484    O    0.13455   0.55397   0.31942   1.000
    O485    O    0.95413   0.11036   0.30485   1.000
    O486    O    0.00899   0.09877   0.32755   1.000
    O487    O    0.21327   0.35056   0.30643   1.000
    O488    O    0.17943   0.29472   0.33074   1.000
    O489    O    0.71307   0.35067   0.30652   1.000
    O490    O    0.67925   0.29493   0.33113   1.000
    O491    O    0.45533   0.10918   0.30661   1.000
    O492    O    0.51027   0.09775   0.32928   1.000
    O493    O    0.55537   0.48772   0.33531   1.000
    O494    O    0.05614   0.48832   0.33569   1.000
    O495    O    0.31745   0.91650   0.31048   1.000
    O496    O    0.28526   0.97024   0.33687   1.000
    O497    O    0.81828   0.91678   0.31008   1.000
    O498    O    0.78625   0.97055   0.33688   1.000
    O499    O    0.92268   0.16258   0.33692   1.000
    O500    O    0.42362   0.16112   0.33883   1.000
    O501    O    0.76094   0.37306   0.34362   1.000
    O502    O    0.26107   0.37280   0.34367   1.000
    O503    O    0.86106   0.89780   0.33602   1.000
    O504    O    0.35982   0.89719   0.33719   1.000
    O505    O    0.06172   0.09110   0.34639   1.000
    O506    O    0.12531   0.08854   0.36821   1.000
    O507    O    0.43006   0.22488   0.35392   1.000
    O508    O    0.45090   0.29731   0.37993   1.000
    O509    O    0.56312   0.09059   0.34768   1.000
    O510    O    0.62659   0.08858   0.36970   1.000
    O511    O    0.92896   0.22653   0.35484   1.000
    O512    O    0.95025   0.29825   0.38141   1.000
    O513    O    0.18413   0.23102   0.35434   1.000
    O514    O    0.18006   0.15063   0.37340   1.000
    O515    O    0.68377   0.23123   0.35472   1.000
    O516    O    0.68028   0.15071   0.37461   1.000
    O517    O    0.03117   0.13181   0.38001   1.000
    O518    O    0.53233   0.13002   0.38254   1.000
    O519    O    0.14984   0.27097   0.38290   1.000
    O520    O    0.65010   0.27136   0.38402   1.000
    O521    O    0.02586   0.43866   0.36318   1.000
    O522    O    0.98088   0.37819   0.38957   1.000
    O523    O    0.52624   0.43841   0.36313   1.000
    O524    O    0.48163   0.37807   0.39000   1.000
    O525    O    0.90577   0.18877   0.39857   1.000
    O526    O    0.75303   0.01411   0.36800   1.000
    O527    O    0.80362   0.01151   0.38657   1.000
    O528    O    0.57147   0.45569   0.39270   1.000
    O529    O    0.25161   0.01314   0.36805   1.000
    O530    O    0.30227   0.01125   0.38657   1.000
    O531    O    0.07235   0.45594   0.39288   1.000
    O532    O    0.40599   0.18739   0.40013   1.000
    O533    O    0.69484   0.06492   0.38455   1.000
    O534    O    0.19355   0.06418   0.38346   1.000
    O535    O    0.80112   0.39835   0.38363   1.000
    O536    O    0.78210   0.34005   0.39679   1.000
    O537    O    0.30154   0.39771   0.38353   1.000
    O538    O    0.28181   0.33986   0.39716   1.000
    O539    O    0.05325   0.18419   0.44543   1.000
    O540    O    0.10427   0.24551   0.44556   1.000
    O541    O    0.33076   0.06267   0.44509   1.000
    O542    O    0.83202   0.06299   0.44502   1.000
    O543    O    0.60513   0.24581   0.44756   1.000
    O544    O    0.55431   0.18299   0.44820   1.000
    O545    O    0.80540   0.29802   0.46492   1.000
    O546    O    0.30546   0.29703   0.46525   1.000
    O547    O    0.92846   0.35521   0.45455   1.000
    O548    O    0.99295   0.32484   0.45954   1.000
    O549    O    0.58939   0.42366   0.46789   1.000
    O550    O    0.08941   0.42373   0.46797   1.000
    O551    O    0.42818   0.35470   0.45507   1.000
    O552    O    0.86481   0.14366   0.45710   1.000
    O553    O    0.36410   0.14274   0.45780   1.000
    O554    O    0.76530   0.19417   0.47403   1.000
    O555    O    0.26483   0.19401   0.47434   1.000
    O556    O    0.37972   0.38757   0.47287   1.000
    O557    O    0.88012   0.38854   0.47282   1.000
    O558    O    0.84024   0.07470   0.53172   1.000
    O559    O    0.30518   0.14458   0.49110   1.000
    O560    O    0.33971   0.07417   0.53172   1.000
    O561    O    0.05474   0.20033   0.53193   1.000
    O562    O    0.55607   0.20129   0.53476   1.000
    O563    O    0.74343   0.17291   0.53937   1.000
    O564    O    0.01472   0.30344   0.52458   1.000
    O565    O    0.55567   0.35310   0.50848   1.000
    O566    O    0.51530   0.30358   0.52511   1.000
    O567    O    0.12919   0.11010   0.52471   1.000
    O568    O    0.17756   0.14277   0.54357   1.000
    O569    O    0.62996   0.11000   0.52694   1.000
    O570    O    0.67868   0.14270   0.54486   1.000
    O571    O    0.80297   0.31647   0.55117   1.000
    O572    O    0.85375   0.25364   0.55204   1.000
    O573    O    0.30371   0.31423   0.55178   1.000
    O574    O    0.35468   0.25193   0.55205   1.000
    O575    O    0.11372   0.35475   0.54175   1.000
    O576    O    0.08049   0.43497   0.55455   1.000
    O577    O    0.61450   0.35475   0.54193   1.000
    O578    O    0.58137   0.43499   0.55467   1.000
    O579    O    0.15546   0.30997   0.59934   1.000
    O580    O    0.65623   0.31015   0.59969   1.000
    O581    O    0.23111   0.11867   0.60834   1.000
    O582    O    0.20007   0.19987   0.61651   1.000
    O583    O    0.03072   0.15757   0.59987   1.000
    O584    O    0.73238   0.11955   0.60986   1.000
    O585    O    0.70144   0.20028   0.61690   1.000
    O586    O    0.32225   0.04203   0.60637   1.000
    O587    O    0.82257   0.04265   0.60699   1.000
    O588    O    0.53194   0.15910   0.60278   1.000
    O589    O    0.78138   0.36900   0.61667   1.000
    O590    O    0.28154   0.36757   0.61705   1.000
    O591    O    0.89919   0.22785   0.61479   1.000
    O592    O    0.39962   0.22697   0.61549   1.000
    O593    O    0.05221   0.48711   0.61294   1.000
    O594    O    0.55295   0.48667   0.61319   1.000
    O595    O    0.94402   0.43557   0.61457   1.000
    O596    O    0.93061   0.34837   0.62368   1.000
    O597    O    0.87650   0.41017   0.62974   1.000
    O598    O    0.44409   0.43432   0.61517   1.000
    O599    O    0.42939   0.34835   0.62507   1.000
    O600    O    0.37555   0.41095   0.62893   1.000
    O601    O    0.05021   0.09967   0.61361   1.000
    O602    O    0.55089   0.10079   0.61597   1.000
    O603    O    0.00997   0.12509   0.65366   1.000
    O604    O    0.51058   0.12596   0.65587   1.000
    O605    O    0.00150   0.48637   0.63114   1.000
    O606    O    0.50230   0.48478   0.63177   1.000
    O607    O    0.17932   0.27238   0.64260   1.000
    O608    O    0.17291   0.33623   0.66071   1.000
    O609    O    0.68042   0.27285   0.64289   1.000
    O610    O    0.67359   0.33663   0.66103   1.000
    O611    O    0.27633   0.05843   0.63483   1.000
    O612    O    0.30576   0.00972   0.66331   1.000
    O613    O    0.03560   0.52889   0.66231   1.000
    O614    O    0.77725   0.05959   0.63662   1.000
    O615    O    0.80648   0.01031   0.66423   1.000
    O616    O    0.53581   0.52811   0.66259   1.000
    O617    O    0.11088   0.60123   0.66193   1.000
    O618    O    0.61029   0.60149   0.66200   1.000
    O619    O    0.93376   0.26760   0.64300   1.000
    O620    O    0.92879   0.20403   0.66698   1.000
    O621    O    0.43287   0.26754   0.64500   1.000
    O622    O    0.42864   0.20375   0.66845   1.000
    O623    O    0.31192   0.40843   0.65068   1.000
    O624    O    0.25931   0.40028   0.66987   1.000
    O625    O    0.81262   0.40771   0.65181   1.000
    O626    O    0.75975   0.40070   0.67032   1.000
    O627    O    0.38431   0.94455   0.67973   1.000
    O628    O    0.88503   0.94489   0.68034   1.000
    O629    O    0.06825   0.58246   0.68851   1.000
    O630    O    0.09966   0.63385   0.71316   1.000
    O631    O    0.56787   0.58220   0.68871   1.000
    O632    O    0.59887   0.63410   0.71317   1.000
    O633    O    0.96242   0.14797   0.69123   1.000
    O634    O    0.99293   0.09546   0.71556   1.000
    O635    O    0.46257   0.14812   0.69296   1.000
    O636    O    0.49335   0.09587   0.71740   1.000
    O637    O    0.20446   0.38843   0.69282   1.000
    O638    O    0.15213   0.37564   0.71542   1.000
    O639    O    0.70497   0.38888   0.69320   1.000
    O640    O    0.65262   0.37611   0.71568   1.000
    O641    O    0.02167   0.56405   0.72263   1.000
    O642    O    0.52150   0.56328   0.72296   1.000
    O643    O    0.33787   0.95953   0.69707   1.000
    O644    O    0.28604   0.97286   0.72007   1.000
    O645    O    0.83861   0.95988   0.69775   1.000
    O646    O    0.78678   0.97313   0.72078   1.000
    O647    O    0.91637   0.16776   0.72641   1.000
    O648    O    0.23522   0.43708   0.72429   1.000
    O649    O    0.73572   0.43758   0.72463   1.000
    O650    O    0.41607   0.16712   0.72759   1.000
    O651    O    0.36872   0.91104   0.72859   1.000
    O652    O    0.86946   0.91134   0.72919   1.000
    O653    O    0.62404   0.68078   0.73802   1.000
    O654    O    0.12519   0.68014   0.73824   1.000
    O655    O    0.10616   0.36749   0.73888   1.000
    O656    O    0.60665   0.36795   0.73914   1.000
    O657    O    0.01792   0.04913   0.74059   1.000
    O658    O    0.51855   0.04971   0.74248   1.000
    O659    O    0.58313   0.66768   0.77169   1.000
    O660    O    0.08407   0.66751   0.77169   1.000
    O661    O    0.13100   0.41109   0.76975   1.000
    O662    O    0.63144   0.41171   0.76987   1.000
    O663    O    0.24022   0.98114   0.74378   1.000
    O664    O    0.74093   0.98129   0.74448   1.000
    O665    O    0.97782   0.06340   0.77526   1.000
    O666    O    0.47806   0.06328   0.77674   1.000
    O667    O    0.26465   0.93735   0.77437   1.000
    O668    O    0.76534   0.93742   0.77497   1.000
    O669    O    0.25963   0.48086   0.75489   1.000
    O670    O    0.21375   0.47271   0.77854   1.000
    O671    O    0.76014   0.48142   0.75516   1.000
    O672    O    0.71419   0.47339   0.77862   1.000
    O673    O    0.98127   0.55048   0.75701   1.000
    O674    O    0.00666   0.59646   0.78214   1.000
    O675    O    0.48122   0.54937   0.75751   1.000
    O676    O    0.50633   0.59567   0.78247   1.000
    O677    O    0.39353   0.86735   0.75939   1.000
    O678    O    0.34763   0.87565   0.78296   1.000
    O679    O    0.87555   0.18111   0.76013   1.000
    O680    O    0.90071   0.13451   0.78519   1.000
    O681    O    0.89429   0.86764   0.75996   1.000
    O682    O    0.84839   0.87588   0.78355   1.000
    O683    O    0.37487   0.17976   0.76087   1.000
    O684    O    0.40022   0.13333   0.78596   1.000
    O685    O    0.16186   0.45951   0.80140   1.000
    O686    O    0.11536   0.44460   0.81860   1.000
    O687    O    0.66225   0.46029   0.80139   1.000
    O688    O    0.61576   0.44541   0.81858   1.000
    O689    O    0.03765   0.64853   0.80656   1.000
    O690    O    0.07157   0.70431   0.83076   1.000
    O691    O    0.29539   0.88863   0.80573   1.000
    O692    O    0.24072   0.90080   0.82894   1.000
    O693    O    0.53696   0.64817   0.80675   1.000
    O694    O    0.57061   0.70432   0.83086   1.000
    O695    O    0.79610   0.88872   0.80630   1.000
    O696    O    0.74131   0.90052   0.82931   1.000
    O697    O    0.69435   0.51067   0.83499   1.000
    O698    O    0.19398   0.50976   0.83521   1.000
    O699    O    0.93165   0.08266   0.80971   1.000
    O700    O    0.96380   0.02861   0.83585   1.000
    O701    O    0.43143   0.08174   0.81067   1.000
    O702    O    0.46377   0.02801   0.83702   1.000
    O703    O    0.32680   0.83625   0.83770   1.000
    O704    O    0.82755   0.83648   0.83835   1.000
    O705    O    0.98977   0.62626   0.84389   1.000
    O706    O    0.48941   0.62549   0.84433   1.000
    O707    O    0.88940   0.10222   0.83664   1.000
    O708    O    0.38876   0.10058   0.83708   1.000
    O709    O    0.68847   0.90767   0.84767   1.000
    O710    O    0.62444   0.91003   0.86857   1.000
    O711    O    0.18799   0.90832   0.84763   1.000
    O712    O    0.12388   0.91054   0.86861   1.000
    O713    O    0.31974   0.77252   0.85603   1.000
    O714    O    0.29847   0.70015   0.88250   1.000
    O715    O    0.82079   0.77271   0.85664   1.000
    O716    O    0.79966   0.70024   0.88287   1.000
    O717    O    0.06653   0.76790   0.85431   1.000
    O718    O    0.06953   0.84841   0.87346   1.000
    O719    O    0.56550   0.76800   0.85445   1.000
    O720    O    0.56934   0.84835   0.87358   1.000
    O721    O    0.21901   0.86933   0.88278   1.000
    O722    O    0.71946   0.86872   0.88293   1.000
    O723    O    0.10118   0.72847   0.88285   1.000
    O724    O    0.60023   0.72859   0.88285   1.000
    O725    O    0.22317   0.55895   0.86301   1.000
    O726    O    0.26782   0.61923   0.88982   1.000
    O727    O    0.72379   0.55952   0.86306   1.000
    O728    O    0.76876   0.61934   0.89016   1.000
    O729    O    0.99741   0.98508   0.86590   1.000
    O730    O    0.94723   0.98776   0.88628   1.000
    O731    O    0.67787   0.54344   0.89176   1.000
    O732    O    0.17778   0.54194   0.89252   1.000
    O733    O    0.49748   0.98503   0.86797   1.000
    O734    O    0.44681   0.98655   0.88651   1.000
    O735    O    0.34472   0.80962   0.89870   1.000
    O736    O    0.05531   0.93435   0.88194   1.000
    O737    O    0.84506   0.81011   0.89967   1.000
    O738    O    0.55576   0.93449   0.88348   1.000
    O739    O    0.94931   0.60115   0.88366   1.000
    O740    O    0.96907   0.65887   0.89764   1.000
    O741    O    0.44857   0.60069   0.88381   1.000
    O742    O    0.46950   0.65752   0.89891   1.000
    O743    O    0.64559   0.75403   0.94637   1.000
    O744    O    0.41859   0.93480   0.94512   1.000
    O745    O    0.14640   0.75410   0.94635   1.000
    O746    O    0.91943   0.93589   0.94526   1.000
    O747    O    0.19713   0.81667   0.94811   1.000
    O748    O    0.69696   0.81617   0.94821   1.000
    O749    O    0.32132   0.64304   0.95489   1.000
    O750    O    0.82229   0.64294   0.95509   1.000
    O751    O    0.75715   0.67330   0.95993   1.000
    O752    O    0.38626   0.85437   0.95701   1.000
    O753    O    0.88669   0.85490   0.95745   1.000
    O754    O    0.48495   0.80382   0.97478   1.000
    O755    O    0.98563   0.80390   0.97474   1.000
    O756    O    0.36995   0.61060   0.97267   1.000
    O757    O    0.87090   0.61038   0.97286   1.000
    O758    O    0.94528   0.85337   0.99115   1.000
    O759    O    0.44443   0.85302   0.99140   1.000
    O760    O    0.05211   0.26227   0.49207   1.000
    O761    O    0.05499   0.35310   0.50825   1.000
    O762    O    0.55290   0.26232   0.49347   1.000
    O763    O    0.49314   0.32480   0.46016   1.000
    O764    O    0.11220   0.16923   0.49589   1.000
    O765    O    0.15370   0.11429   0.45229   1.000
    O766    O    0.61316   0.16909   0.49809   1.000
    O767    O    0.65464   0.11412   0.45444   1.000
    O768    O    0.19386   0.64485   0.00844   1.000
    O769    O    0.19757   0.73653   0.99313   1.000
    O770    O    0.69469   0.64522   0.00811   1.000
    O771    O    0.69748   0.73667   0.99295   1.000
    O772    O    0.13753   0.83016   0.99680   1.000
    O773    O    0.09531   0.88504   0.95245   1.000
    O774    O    0.63712   0.82975   0.99699   1.000
    O775    O    0.59559   0.88465   0.95260   1.000
    O776    O    0.44722   0.76239   0.00647   1.000
    O777    O    0.50703   0.82482   0.03968   1.000
    O778    O    0.94809   0.76256   0.00647   1.000
    O779    O    0.00771   0.82527   0.03968   1.000
    O780    O    0.34550   0.61451   0.04536   1.000
    O781    O    0.38692   0.66951   0.00181   1.000
    O782    O    0.84636   0.61438   0.04549   1.000
    O783    O    0.88787   0.66939   0.00196   1.000
    O784    O    0.24250   0.17269   0.53926   1.000
    O785    O    0.30236   0.23532   0.50618   1.000
    O786    O    0.80597   0.14500   0.49085   1.000
    O787    O    0.80221   0.23644   0.50600   1.000
    O788    O    0.40409   0.38422   0.54532   1.000
    O789    O    0.36263   0.32836   0.50181   1.000
    O790    O    0.90473   0.38481   0.54508   1.000
    O791    O    0.86245   0.32982   0.50166   1.000
loop_
    _geom_bond_atom_site_label_1
    _geom_bond_atom_site_label_2
    _geom_bond_distance
    _geom_bond_site_symmetry_2
    _ccdc_geom_bond_type
    C292   O352      0.49205      .   S
    C48    O352      0.49205      .   S
    C292   O353      0.99751  1_554   S
    C2     O353      0.99751      .   S
    C294   O354      0.51884      .   S
    C50    O354      0.51884      .   S
    C294   O355      0.99114      .   S
    C26    O355      0.99114      .   S
    C295   O356      0.51900      .   S
    C51    O356      0.51900      .   S
    C295   O357      0.99316      .   S
    C27    O357      0.99316      .   S
    C16    O358      1.02999      .   S
    C302   O358      1.02999      .   S
    C16    O359      1.01947      .   S
    C290   O359      1.01947      .   S
    C16    O360      1.00985  1_554   S
    C278   O360      1.00985      .   S
    C17    O361      1.01945      .   S
    C291   O361      1.01945      .   S
    C17    O362      1.02871      .   S
    C303   O362      1.02871      .   S
    C17    O363      1.00838  1_554   S
    C279   O363      1.00838      .   S
    C7     O364      1.01623      .   S
    C287   O364      1.01623      .   S
    C7     O365      0.97838      .   S
    C243   O365      0.97838      .   S
    C7     O366      0.98770  1_554   S
    C255   O366      0.98770      .   S
    C6     O367      1.01713      .   S
    C286   O367      1.01713      .   S
    C6     O368      0.97978      .   S
    C242   O368      0.97978      .   S
    C6     O369      0.98801  1_554   S
    C254   O369      0.98801      .   S
    C49    O370      0.49283      .   S
    C293   O370      0.49283      .   S
    C287   O371      0.63850      .   S
    C165   O371      0.63850      .   S
    C286   O372      0.63842      .   S
    C164   O372      0.63842      .   S
    C27    O373      0.98066      .   S
    C337   O373      0.98066      .   S
    C27    O374      0.98175      .   S
    C285   O374      0.98175      .   S
    C26    O375      0.98350      .   S
    C336   O375      0.98350  1_655   S
    C26    O376      0.98060      .   S
    C284   O376      0.98060      .   S
    C339   O377      0.63952      .   S
    C235   O377      0.63952      .   S
    C339   O378      0.98519      .   S
    C31    O378      0.98519  1_556   S
    C338   O379      0.63960      .   S
    C234   O379      0.63960      .   S
    C338   O380      0.98732      .   S
    C30    O380      0.98732  1_556   S
    C306   O381      0.64310      .   S
    C184   O381      0.64310      .   S
    C306   O382      1.00434      .   S
    C8     O382      1.00434  1_556   S
    C307   O383      0.64274      .   S
    C185   O383      0.64274      .   S
    C307   O384      1.00570      .   S
    C9     O384      1.00570  1_556   S
    C302   O385      0.63377      .   S
    C182   O385      0.63377      .   S
    C243   O386      0.63837      .   S
    C109   O386      0.63837      .   S
    C291   O387      0.63436      .   S
    C167   O387      0.63436      .   S
    C303   O388      0.63392      .   S
    C183   O388      0.63392      .   S
    C242   O389      0.63818      .   S
    C108   O389      0.63818      .   S
    C290   O390      0.63410      .   S
    C166   O390      0.63410      .   S
    C4     O391      0.97230      .   S
    C240   O391      0.97230      .   S
    C4     O392      1.00959      .   S
    C300   O392      1.00959      .   S
    C4     O393      0.98808      .   S
    C288   O393      0.98808      .   S
    C5     O394      0.97415      .   S
    C241   O394      0.97415      .   S
    C5     O395      1.01072      .   S
    C301   O395      1.01072      .   S
    C5     O396      0.98676      .   S
    C289   O396      0.98676      .   S
    C304   O397      0.63073      .   S
    C184   O397      0.63073      .   S
    C305   O398      0.63081      .   S
    C185   O398      0.63081      .   S
    C184   O399      0.74924      .   S
    C176   O399      0.74924      .   S
    C185   O400      0.74988      .   S
    C177   O400      0.74988      .   S
    C240   O401      0.63584      .   S
    C108   O401      0.63584      .   S
    C241   O402      0.63602      .   S
    C109   O402      0.63602      .   S
    C165   O403      0.63707      .   S
    C285   O403      0.63707      .   S
    C165   O404      0.75326      .   S
    C157   O404      0.75326      .   S
    C164   O405      0.63735      .   S
    C284   O405      0.63735      .   S
    C164   O406      0.75318      .   S
    C156   O406      0.75318      .   S
    C109   O407      0.74691      .   S
    C97    O407      0.74691      .   S
    C235   O408      0.63791      .   S
    C336   O408      0.63791      .   S
    C235   O409      0.74877      .   S
    C223   O409      0.74877  1_545   S
    C108   O410      0.74629      .   S
    C96    O410      0.74629      .   S
    C234   O411      0.63777      .   S
    C337   O411      0.63777      .   S
    C234   O412      0.74921      .   S
    C222   O412      0.74921  1_545   S
    C37    O413      0.54067      .   S
    C99    O413      0.54067      .   S
    C36    O414      0.54446      .   S
    C98    O414      0.54446      .   S
    C183   O415      0.64104      .   S
    C301   O415      0.64104      .   S
    C183   O416      0.75617      .   S
    C175   O416      0.75617      .   S
    C182   O417      0.64092      .   S
    C300   O417      0.64092      .   S
    C182   O418      0.75521      .   S
    C174   O418      0.75521      .   S
    C166   O419      0.64086      .   S
    C288   O419      0.64086      .   S
    C166   O420      0.74807      .   S
    C159   O420      0.74807      .   S
    C167   O421      0.64077      .   S
    C289   O421      0.64077      .   S
    C167   O422      0.74777      .   S
    C158   O422      0.74777  1_455   S
    C91    O423      0.54452      .   S
    C225   O423      0.54452      .   S
    C90    O424      0.54454      .   S
    C224   O424      0.54454      .   S
    C99    O425      0.70151      .   S
    C97    O425      0.70151      .   S
    C99    O426      0.69957      .   S
    C101   O426      0.69957      .   S
    C98    O427      0.70098      .   S
    C96    O427      0.70098      .   S
    C98    O428      0.69561      .   S
    C100   O428      0.69561      .   S
    C176   O429      0.70542      .   S
    C174   O429      0.70542      .   S
    C176   O430      0.69837      .   S
    C178   O430      0.69837      .   S
    C177   O431      0.70573      .   S
    C175   O431      0.70573      .   S
    C177   O432      0.69898      .   S
    C179   O432      0.69898      .   S
    C157   O433      0.70623      .   S
    C159   O433      0.70623      .   S
    C157   O434      0.70027      .   S
    C155   O434      0.70027      .   S
    C156   O435      0.70589      .   S
    C158   O435      0.70589      .   S
    C156   O436      0.70026      .   S
    C154   O436      0.70026      .   S
    C97    O437      0.69797      .   S
    C107   O437      0.69797      .   S
    C96    O438      0.69806      .   S
    C106   O438      0.69806      .   S
    C223   O439      0.70124      .   S
    C225   O439      0.70124      .   S
    C223   O440      0.69899      .   S
    C233   O440      0.69899      .   S
    C222   O441      0.70108      .   S
    C224   O441      0.70108      .   S
    C222   O442      0.69950      .   S
    C232   O442      0.69950      .   S
    C175   O443      0.70222      .   S
    C173   O443      0.70222      .   S
    C174   O444      0.70188      .   S
    C172   O444      0.70188      .   S
    C159   O445      0.69843      .   S
    C161   O445      0.69843      .   S
    C158   O446      0.69845      .   S
    C160   O446      0.69845      .   S
    C225   O447      0.69750      .   S
    C227   O447      0.69750      .   S
    C224   O448      0.69726      .   S
    C226   O448      0.69726      .   S
    C39    O449      0.54519      .   S
    C101   O449      0.54519      .   S
    C38    O450      0.54517      .   S
    C100   O450      0.54517      .   S
    C61    O451      0.54543      .   S
    C155   O451      0.54543      .   S
    C60    O452      0.54541      .   S
    C154   O452      0.54541      .   S
    C72    O453      0.54411      .   S
    C178   O453      0.54411      .   S
    C73    O454      0.54414      .   S
    C179   O454      0.54414      .   S
    C101   O455      0.70213      .   S
    C103   O455      0.70213      .   S
    C100   O456      0.70199      .   S
    C102   O456      0.70199      .   S
    C155   O457      0.69741      .   S
    C153   O457      0.69741      .   S
    C94    O458      0.54383      .   S
    C233   O458      0.54383  1_655   S
    C95    O459      0.54386      .   S
    C232   O459      0.54386      .   S
    C154   O460      0.69749      .   S
    C152   O460      0.69749      .   S
    C178   O461      0.69786      .   S
    C168   O461      0.69786      .   S
    C233   O462      0.69793      .   S
    C231   O462      0.69793      .   S
    C179   O463      0.69816      .   S
    C169   O463      0.69816      .   S
    C232   O464      0.69853      .   S
    C230   O464      0.69853      .   S
    C161   O465      0.54387      .   S
    C62    O465      0.54387      .   S
    C161   O466      0.69950      .   S
    C151   O466      0.69950      .   S
    C160   O467      0.54389  1_455   S
    C63    O467      0.54389      .   S
    C160   O468      0.69946      .   S
    C150   O468      0.69946      .   S
    C107   O469      0.54409      .   S
    C41    O469      0.54409      .   S
    C107   O470      0.69867      .   S
    C105   O470      0.69867      .   S
    C106   O471      0.54413      .   S
    C40    O471      0.54413      .   S
    C106   O472      0.69870      .   S
    C104   O472      0.69870      .   S
    C227   O473      0.54540      .   S
    C93    O473      0.54540      .   S
    C227   O474      0.70017      .   S
    C229   O474      0.70017      .   S
    C173   O475      0.54518      .   S
    C71    O475      0.54518      .   S
    C173   O476      0.69594      .   S
    C171   O476      0.69594      .   S
    C172   O477      0.54519      .   S
    C70    O477      0.54519      .   S
    C172   O478      0.69579      .   S
    C170   O478      0.69579      .   S
    C226   O479      0.54540      .   S
    C92    O479      0.54540      .   S
    C226   O480      0.70018      .   S
    C228   O480      0.70018      .   S
    C153   O481      0.70109      .   S
    C151   O481      0.70109      .   S
    C153   O482      0.54452      .   S
    C59    O482      0.54452      .   S
    C152   O483      0.70118      .   S
    C150   O483      0.70118      .   S
    C152   O484      0.54458      .   S
    C58    O484      0.54458      .   S
    C231   O485      0.70598      .   S
    C229   O485      0.70598      .   S
    C231   O486      0.74713  1_655   S
    C238   O486      0.74713      .   S
    C102   O487      0.70535      .   S
    C104   O487      0.70535      .   S
    C102   O488      0.75485      .   S
    C110   O488      0.75485      .   S
    C103   O489      0.70555      .   S
    C105   O489      0.70555      .   S
    C103   O490      0.75596      .   S
    C111   O490      0.75596      .   S
    C230   O491      0.70582      .   S
    C228   O491      0.70582      .   S
    C230   O492      0.74820      .   S
    C239   O492      0.74820      .   S
    C151   O493      0.74923      .   S
    C163   O493      0.74923      .   S
    C150   O494      0.74939      .   S
    C162   O494      0.74939      .   S
    C168   O495      0.70092      .   S
    C170   O495      0.70092      .   S
    C168   O496      0.74614      .   S
    C180   O496      0.74614  1_545   S
    C169   O497      0.70109      .   S
    C171   O497      0.70109      .   S
    C169   O498      0.74718      .   S
    C181   O498      0.74718  1_545   S
    C229   O499      0.75321      .   S
    C237   O499      0.75321      .   S
    C228   O500      0.75260      .   S
    C236   O500      0.75260      .   S
    C105   O501      0.74928      .   S
    C113   O501      0.74928      .   S
    C104   O502      0.74962      .   S
    C112   O502      0.74962      .   S
    C171   O503      0.54450      .   S
    C69    O503      0.54450      .   S
    C170   O504      0.54445      .   S
    C68    O504      0.54445      .   S
    C344   O505      0.64073      .   S
    C238   O505      0.64073      .   S
    C344   O506      0.98502      .   S
    C20    O506      0.98502      .   S
    C340   O507      0.65398      .   S
    C236   O507      0.65398      .   S
    C340   O508      1.01537      .   S
    C10    O508      1.01537      .   S
    C345   O509      0.64069      .   S
    C239   O509      0.64069      .   S
    C345   O510      0.98692      .   S
    C21    O510      0.98692      .   S
    C341   O511      0.63757      .   S
    C237   O511      0.63757      .   S
    C341   O512      0.98313      .   S
    C11    O512      0.98313      .   S
    C244   O513      0.64120      .   S
    C110   O513      0.64120      .   S
    C244   O514      1.00785      .   S
    C20    O514      1.00785      .   S
    C245   O515      0.64070      .   S
    C111   O515      0.64070      .   S
    C245   O516      1.01008      .   S
    C21    O516      1.01008      .   S
    C238   O517      0.63413      .   S
    C346   O517      0.63413      .   S
    C239   O518      0.63455      .   S
    C347   O518      0.63455      .   S
    C110   O519      0.63372      .   S
    C246   O519      0.63372      .   S
    C111   O520      0.63394      .   S
    C247   O520      0.63394      .   S
    C281   O521      0.66160      .   S
    C162   O521      0.66160      .   S
    C281   O522      0.96927  1_455   S
    C11    O522      0.96927      .   S
    C280   O523      0.63779      .   S
    C163   O523      0.63779      .   S
    C280   O524      0.98035      .   S
    C10    O524      0.98035      .   S
    C237   O525      0.63831      .   S
    C343   O525      0.63831      .   S
    C181   O526      0.63608      .   S
    C297   O526      0.63608      .   S
    C181   O527      0.63829      .   S
    C299   O527      0.63829      .   S
    C163   O528      0.63954      .   S
    C283   O528      0.63954      .   S
    C180   O529      0.63610      .   S
    C296   O529      0.63610      .   S
    C180   O530      0.63790      .   S
    C298   O530      0.63790      .   S
    C162   O531      0.63979      .   S
    C282   O531      0.63979      .   S
    C236   O532      0.63836      .   S
    C342   O532      0.63836      .   S
    C297   O533      0.97335      .   S
    C21    O533      0.97335      .   S
    C296   O534      0.97299      .   S
    C20    O534      0.97299      .   S
    C113   O535      0.63080      .   S
    C249   O535      0.63080      .   S
    C113   O536      0.64276      .   S
    C251   O536      0.64276      .   S
    C112   O537      0.63137      .   S
    C248   O537      0.63137      .   S
    C112   O538      0.64237      .   S
    C250   O538      0.64237      .   S
    C346   O539      1.01413      .   S
    C0     O539      1.01413      .   S
    C246   O540      1.02515      .   S
    C0     O540      1.02515      .   S
    C298   O541      0.97987      .   S
    C22    O541      0.97987      .   S
    C299   O542      0.98219      .   S
    C23    O542      0.98219      .   S
    C247   O543      1.02898      .   S
    C1     O543      1.02898      .   S
    C347   O544      1.02100      .   S
    C1     O544      1.02100      .   S
    C251   O545      1.00366      .   S
    C25    O545      1.00366      .   S
    C250   O546      1.01135      .   S
    C24    O546      1.01135      .   S
    C11    O547      0.99160      .   S
    C351   O547      0.99160      .   S
    C11    O548      0.99415      .   S
    C264   O548      0.99415  1_455   S
    C283   O549      0.98656      .   S
    C15    O549      0.98656      .   S
    C282   O550      0.98711      .   S
    C14    O550      0.98711      .   S
    C10    O551      0.98920      .   S
    C350   O551      0.98920      .   S
    C343   O552      1.02035      .   S
    C23    O552      1.02035      .   S
    C342   O553      1.01755      .   S
    C22    O553      1.01755      .   S
    C81    O554      0.49179      .   S
    C349   O554      0.49179      .   S
    C80    O555      0.49220      .   S
    C348   O555      0.49220      .   S
    C82    O556      0.52108      .   S
    C350   O556      0.52108      .   S
    C83    O557      0.51986      .   S
    C351   O557      0.51986      .   S
    C23    O558      0.98675      .   S
    C311   O558      0.98675      .   S
    C22    O559      0.99756      .   S
    C348   O559      0.99756      .   S
    C22    O560      0.98434      .   S
    C310   O560      0.98434      .   S
    C0     O561      1.00977      .   S
    C334   O561      1.00977      .   S
    C1     O562      1.01027      .   S
    C335   O562      1.01027      .   S
    C349   O563      0.99775      .   S
    C19    O563      0.99775      .   S
    C264   O564      0.49260      .   S
    C32    O564      0.49260      .   S
    C265   O565      0.99630      .   S
    C15    O565      0.99630      .   S
    C265   O566      0.49214      .   S
    C33    O566      0.49214      .   S
    C266   O567      0.52001      .   S
    C34    O567      0.52001      .   S
    C266   O568      0.99220      .   S
    C18    O568      0.99220      .   S
    C267   O569      0.52079      .   S
    C35    O569      0.52079      .   S
    C267   O570      0.98983      .   S
    C19    O570      0.98983      .   S
    C25    O571      1.01506      .   S
    C263   O571      1.01506      .   S
    C25    O572      1.02794      .   S
    C331   O572      1.02794      .   S
    C24    O573      1.02020      .   S
    C262   O573      1.02020      .   S
    C24    O574      1.02632      .   S
    C330   O574      1.02632      .   S
    C14    O575      1.01754      .   S
    C258   O575      1.01754      .   S
    C14    O576      0.98023      .   S
    C270   O576      0.98023      .   S
    C15    O577      1.01773      .   S
    C259   O577      1.01773      .   S
    C15    O578      0.98198      .   S
    C271   O578      0.98198      .   S
    C258   O579      0.63847      .   S
    C128   O579      0.63847      .   S
    C259   O580      0.63859      .   S
    C129   O580      0.63859      .   S
    C18    O581      0.98021      .   S
    C308   O581      0.98021      .   S
    C18    O582      0.98245      .   S
    C256   O582      0.98245      .   S
    C334   O583      0.64234      .   S
    C220   O583      0.64234      .   S
    C19    O584      0.97932      .   S
    C309   O584      0.97932      .   S
    C19    O585      0.98312      .   S
    C257   O585      0.98312      .   S
    C310   O586      0.63944      .   S
    C198   O586      0.63944      .   S
    C311   O587      0.63933      .   S
    C199   O587      0.63933      .   S
    C335   O588      0.64266      .   S
    C221   O588      0.64266      .   S
    C263   O589      0.63459      .   S
    C131   O589      0.63459      .   S
    C262   O590      0.63430      .   S
    C130   O590      0.63430      .   S
    C331   O591      0.63392      .   S
    C219   O591      0.63392      .   S
    C330   O592      0.63402      .   S
    C218   O592      0.63402      .   S
    C270   O593      0.63771      .   S
    C144   O593      0.63771      .   S
    C271   O594      0.63795      .   S
    C145   O594      0.63795      .   S
    C13    O595      0.96941      .   S
    C269   O595      0.96941      .   S
    C13    O596      1.01029      .   S
    C329   O596      1.01029      .   S
    C13    O597      0.98922      .   S
    C261   O597      0.98922      .   S
    C12    O598      0.97263      .   S
    C268   O598      0.97263      .   S
    C12    O599      1.01233      .   S
    C328   O599      1.01233      .   S
    C12    O600      0.98653      .   S
    C260   O600      0.98653      .   S
    C332   O601      0.63117      .   S
    C220   O601      0.63117      .   S
    C333   O602      0.63119      .   S
    C221   O602      0.63119      .   S
    C220   O603      0.74974      .   S
    C213   O603      0.74974  1_655   S
    C221   O604      0.74933      .   S
    C212   O604      0.74933      .   S
    C269   O605      0.63695  1_655   S
    C144   O605      0.63695      .   S
    C268   O606      0.63623      .   S
    C145   O606      0.63623      .   S
    C128   O607      0.63732      .   S
    C256   O607      0.63732      .   S
    C128   O608      0.75334      .   S
    C120   O608      0.75334      .   S
    C129   O609      0.63710      .   S
    C257   O609      0.63710      .   S
    C129   O610      0.75344      .   S
    C121   O610      0.75344      .   S
    C198   O611      0.63788      .   S
    C308   O611      0.63788      .   S
    C198   O612      0.74853      .   S
    C186   O612      0.74853  1_565   S
    C144   O613      0.74634      .   S
    C132   O613      0.74634      .   S
    C199   O614      0.63789      .   S
    C309   O614      0.63789      .   S
    C199   O615      0.74907      .   S
    C187   O615      0.74907  1_565   S
    C145   O616      0.74707      .   S
    C133   O616      0.74707      .   S
    C52    O617      0.54453      .   S
    C134   O617      0.54453      .   S
    C53    O618      0.54456      .   S
    C135   O618      0.54456      .   S
    C219   O619      0.64103      .   S
    C329   O619      0.64103      .   S
    C219   O620      0.75570      .   S
    C211   O620      0.75570      .   S
    C218   O621      0.64060      .   S
    C328   O621      0.64060      .   S
    C218   O622      0.75573      .   S
    C210   O622      0.75573      .   S
    C130   O623      0.64069      .   S
    C260   O623      0.64069      .   S
    C130   O624      0.74815      .   S
    C122   O624      0.74815      .   S
    C131   O625      0.64033      .   S
    C261   O625      0.64033      .   S
    C131   O626      0.74717      .   S
    C123   O626      0.74717      .   S
    C74    O627      0.54451      .   S
    C188   O627      0.54451      .   S
    C75    O628      0.54450      .   S
    C189   O628      0.54450      .   S
    C134   O629      0.70096      .   S
    C132   O629      0.70096      .   S
    C134   O630      0.69611      .   S
    C136   O630      0.69611      .   S
    C135   O631      0.70106      .   S
    C133   O631      0.70106      .   S
    C135   O632      0.69609      .   S
    C137   O632      0.69609      .   S
    C213   O633      0.70563      .   S
    C211   O633      0.70563      .   S
    C213   O634      0.69840      .   S
    C215   O634      0.69840      .   S
    C212   O635      0.70544      .   S
    C210   O635      0.70544      .   S
    C212   O636      0.69864      .   S
    C214   O636      0.69864      .   S
    C120   O637      0.70593      .   S
    C122   O637      0.70593      .   S
    C120   O638      0.69998      .   S
    C118   O638      0.69998      .   S
    C121   O639      0.70588      .   S
    C123   O639      0.70588      .   S
    C121   O640      0.69978      .   S
    C119   O640      0.69978      .   S
    C132   O641      0.69779      .   S
    C142   O641      0.69779      .   S
    C133   O642      0.69811      .   S
    C143   O642      0.69811      .   S
    C186   O643      0.70124      .   S
    C188   O643      0.70124      .   S
    C186   O644      0.69898      .   S
    C196   O644      0.69898      .   S
    C187   O645      0.70116      .   S
    C189   O645      0.70116      .   S
    C187   O646      0.69926      .   S
    C197   O646      0.69926      .   S
    C211   O647      0.70213      .   S
    C209   O647      0.70213      .   S
    C122   O648      0.69857      .   S
    C124   O648      0.69857      .   S
    C123   O649      0.69804      .   S
    C125   O649      0.69804      .   S
    C210   O650      0.70154      .   S
    C208   O650      0.70154      .   S
    C188   O651      0.69733      .   S
    C190   O651      0.69733      .   S
    C189   O652      0.69752      .   S
    C191   O652      0.69752      .   S
    C55    O653      0.54520      .   S
    C137   O653      0.54520      .   S
    C54    O654      0.54520      .   S
    C136   O654      0.54520      .   S
    C44    O655      0.54537      .   S
    C118   O655      0.54537      .   S
    C45    O656      0.54535      .   S
    C119   O656      0.54535      .   S
    C88    O657      0.54408      .   S
    C215   O657      0.54408  1_655   S
    C89    O658      0.54406      .   S
    C214   O658      0.54406      .   S
    C137   O659      0.70209      .   S
    C139   O659      0.70209      .   S
    C136   O660      0.70215      .   S
    C138   O660      0.70215      .   S
    C118   O661      0.69751      .   S
    C116   O661      0.69751      .   S
    C119   O662      0.69807      .   S
    C117   O662      0.69807      .   S
    C78    O663      0.54381      .   S
    C196   O663      0.54381      .   S
    C79    O664      0.54381      .   S
    C197   O664      0.54381      .   S
    C215   O665      0.69766      .   S
    C205   O665      0.69766      .   S
    C214   O666      0.69793      .   S
    C204   O666      0.69793      .   S
    C196   O667      0.69807      .   S
    C194   O667      0.69807      .   S
    C197   O668      0.69817      .   S
    C195   O668      0.69817      .   S
    C124   O669      0.54381      .   S
    C46    O669      0.54381      .   S
    C124   O670      0.69945      .   S
    C114   O670      0.69945      .   S
    C125   O671      0.54382      .   S
    C47    O671      0.54382      .   S
    C125   O672      0.69915      .   S
    C115   O672      0.69915      .   S
    C142   O673      0.54400  1_455   S
    C57    O673      0.54400      .   S
    C142   O674      0.69834      .   S
    C140   O674      0.69834      .   S
    C143   O675      0.54411      .   S
    C56    O675      0.54411      .   S
    C143   O676      0.69875      .   S
    C141   O676      0.69875      .   S
    C190   O677      0.54539      .   S
    C76    O677      0.54539      .   S
    C190   O678      0.69983      .   S
    C192   O678      0.69983      .   S
    C209   O679      0.54519      .   S
    C87    O679      0.54519      .   S
    C209   O680      0.69614      .   S
    C207   O680      0.69614      .   S
    C191   O681      0.54542      .   S
    C77    O681      0.54542      .   S
    C191   O682      0.69992      .   S
    C193   O682      0.69992      .   S
    C208   O683      0.54526      .   S
    C86    O683      0.54526      .   S
    C208   O684      0.69653      .   S
    C206   O684      0.69653      .   S
    C116   O685      0.70122      .   S
    C114   O685      0.70122      .   S
    C116   O686      0.54484      .   S
    C42    O686      0.54484      .   S
    C117   O687      0.70118      .   S
    C115   O687      0.70118      .   S
    C117   O688      0.54452      .   S
    C43    O688      0.54452      .   S
    C138   O689      0.70550      .   S
    C140   O689      0.70550      .   S
    C138   O690      0.75557      .   S
    C146   O690      0.75557      .   S
    C194   O691      0.70571      .   S
    C192   O691      0.70571      .   S
    C194   O692      0.74710      .   S
    C202   O692      0.74710      .   S
    C139   O693      0.70564      .   S
    C141   O693      0.70564      .   S
    C139   O694      0.75607      .   S
    C147   O694      0.75607      .   S
    C195   O695      0.70576      .   S
    C193   O695      0.70576      .   S
    C195   O696      0.74760      .   S
    C203   O696      0.74760      .   S
    C115   O697      0.74899      .   S
    C127   O697      0.74899      .   S
    C114   O698      0.74944      .   S
    C126   O698      0.74944      .   S
    C205   O699      0.70091      .   S
    C207   O699      0.70091      .   S
    C205   O700      0.74701      .   S
    C217   O700      0.74701  1_565   S
    C204   O701      0.70104      .   S
    C206   O701      0.70104      .   S
    C204   O702      0.74680      .   S
    C216   O702      0.74680  1_565   S
    C192   O703      0.75363      .   S
    C200   O703      0.75363      .   S
    C193   O704      0.75345      .   S
    C201   O704      0.75345      .   S
    C140   O705      0.74912  1_455   S
    C149   O705      0.74912      .   S
    C141   O706      0.74939      .   S
    C148   O706      0.74939      .   S
    C207   O707      0.54452      .   S
    C85    O707      0.54452      .   S
    C206   O708      0.54452      .   S
    C84    O708      0.54452      .   S
    C317   O709      0.64107      .   S
    C203   O709      0.64107      .   S
    C317   O710      0.98511      .   S
    C29    O710      0.98511      .   S
    C316   O711      0.64054      .   S
    C202   O711      0.64054      .   S
    C316   O712      0.98755      .   S
    C28    O712      0.98755      .   S
    C312   O713      0.63717      .   S
    C200   O713      0.63717      .   S
    C312   O714      0.98396      .   S
    C2     O714      0.98396      .   S
    C313   O715      0.63684      .   S
    C201   O715      0.63684      .   S
    C313   O716      0.98330      .   S
    C3     O716      0.98330      .   S
    C272   O717      0.64094      .   S
    C146   O717      0.64094      .   S
    C272   O718      1.00774      .   S
    C28    O718      1.00774      .   S
    C273   O719      0.64148      .   S
    C147   O719      0.64148      .   S
    C273   O720      1.01095      .   S
    C29    O720      1.01095      .   S
    C202   O721      0.63442      .   S
    C318   O721      0.63442      .   S
    C203   O722      0.63416      .   S
    C319   O722      0.63416      .   S
    C146   O723      0.63369      .   S
    C274   O723      0.63369      .   S
    C147   O724      0.63359      .   S
    C275   O724      0.63359      .   S
    C252   O725      0.63793      .   S
    C126   O725      0.63793      .   S
    C252   O726      0.98117      .   S
    C2     O726      0.98117      .   S
    C253   O727      0.63807      .   S
    C127   O727      0.63807      .   S
    C253   O728      0.98033      .   S
    C3     O728      0.98033      .   S
    C217   O729      0.63631      .   S
    C324   O729      0.63631  1_455   S
    C217   O730      0.63782      .   S
    C327   O730      0.63782      .   S
    C127   O731      0.63925      .   S
    C255   O731      0.63925      .   S
    C126   O732      0.63958      .   S
    C254   O732      0.63958      .   S
    C216   O733      0.63629      .   S
    C325   O733      0.63629      .   S
    C216   O734      0.63779      .   S
    C326   O734      0.63779      .   S
    C200   O735      0.63827      .   S
    C314   O735      0.63827      .   S
    C324   O736      0.96984      .   S
    C28    O736      0.96984      .   S
    C201   O737      0.63871      .   S
    C315   O737      0.63871      .   S
    C325   O738      0.97142      .   S
    C29    O738      0.97142      .   S
    C149   O739      0.63135      .   S
    C277   O739      0.63135      .   S
    C149   O740      0.64221      .   S
    C279   O740      0.64221      .   S
    C148   O741      0.63158      .   S
    C276   O741      0.63158      .   S
    C148   O742      0.64219      .   S
    C278   O742      0.64219      .   S
    C275   O743      1.02928      .   S
    C9     O743      1.02928      .   S
    C326   O744      0.98120      .   S
    C30    O744      0.98120      .   S
    C274   O745      1.02971      .   S
    C8     O745      1.02971      .   S
    C327   O746      0.98411      .   S
    C31    O746      0.98411      .   S
    C318   O747      1.01594      .   S
    C8     O747      1.01594      .   S
    C319   O748      1.02123      .   S
    C9     O748      1.02123      .   S
    C2     O749      0.98938      .   S
    C322   O749      0.98938      .   S
    C3     O750      0.98965      .   S
    C323   O750      0.98965      .   S
    C3     O751      0.99783      .   S
    C293   O751      0.99783  1_554   S
    C314   O752      1.01926      .   S
    C30    O752      1.01926      .   S
    C315   O753      1.01761      .   S
    C31    O753      1.01761      .   S
    C64    O754      0.49277      .   S
    C320   O754      0.49277      .   S
    C65    O755      0.49219      .   S
    C321   O755      0.49219      .   S
    C66    O756      0.52198      .   S
    C322   O756      0.52198      .   S
    C67    O757      0.52151      .   S
    C323   O757      0.52151      .   S
    C31    O758      0.99583      .   S
    C321   O758      0.99583      .   S
    C30    O759      0.99601      .   S
    C320   O759      0.99601      .   S
    C264   O760      1.07474      .   S
    C0     O760      1.07474      .   S
    C264   O761      0.99457      .   S
    C14    O761      0.99457      .   S
    C265   O762      1.07561      .   S
    C1     O762      1.07561      .   S
    C265   O763      0.99677      .   S
    C10    O763      0.99677      .   S
    C266   O764      1.05140      .   S
    C0     O764      1.05140      .   S
    C266   O765      0.99470      .   S
    C20    O765      0.99470      .   S
    C267   O766      1.05249      .   S
    C1     O766      1.05249      .   S
    C267   O767      0.99248      .   S
    C21    O767      0.99248      .   S
    C292   O768      0.99956      .   S
    C6     O768      0.99956      .   S
    C292   O769      1.07645  1_554   S
    C8     O769      1.07645      .   S
    C293   O770      0.99870      .   S
    C7     O770      0.99870      .   S
    C293   O771      1.07685  1_554   S
    C9     O771      1.07685      .   S
    C294   O772      1.05553  1_554   S
    C8     O772      1.05553      .   S
    C294   O773      0.99588  1_554   S
    C28    O773      0.99588      .   S
    C295   O774      1.04993  1_554   S
    C9     O774      1.04993      .   S
    C295   O775      0.99638  1_554   S
    C29    O775      0.99638      .   S
    C320   O776      1.07395  1_556   S
    C16    O776      1.07395      .   S
    C320   O777      0.99674  1_556   S
    C27    O777      0.99674      .   S
    C321   O778      1.07489  1_556   S
    C17    O778      1.07489      .   S
    C321   O779      0.99735  1_656   S
    C26    O779      0.99735      .   S
    C322   O780      0.99258  1_556   S
    C4     O780      0.99258      .   S
    C322   O781      1.04992  1_556   S
    C16    O781      1.04992      .   S
    C323   O782      0.99152  1_556   S
    C5     O782      0.99152      .   S
    C323   O783      1.05199  1_556   S
    C17    O783      1.05199      .   S
    C348   O784      0.99891      .   S
    C18    O784      0.99891      .   S
    C348   O785      1.07249      .   S
    C24    O785      1.07249      .   S
    C349   O786      0.99911      .   S
    C23    O786      0.99911      .   S
    C349   O787      1.07803      .   S
    C25    O787      1.07803      .   S
    C350   O788      0.99214      .   S
    C12    O788      0.99214      .   S
    C350   O789      1.05257      .   S
    C24    O789      1.05257      .   S
    C351   O790      0.99254      .   S
    C13    O790      0.99254      .   S
    C351   O791      1.05467      .   S
    C25    O791      1.05467      .   S
