# CIF file generated by openbabel 2.4.90, see http://openbabel.sf.net
data_I
_chemical_name_common ''
_cell_length_a 15.131
_cell_length_b 14.406
_cell_length_c 21.129
_cell_angle_alpha 90.026
_cell_angle_beta 90.03
_cell_angle_gamma 92.656
_space_group_name_H-M_alt 'P 1'
_space_group_name_Hall 'P 1'
loop_
    _symmetry_equiv_pos_as_xyz
    x,y,z
loop_
    _atom_site_label
    _atom_site_type_symbol
    _atom_site_fract_x
    _atom_site_fract_y
    _atom_site_fract_z
    _atom_site_occupancy
    H0      H    0.25520   0.33293   0.90615   1.000
    H1      H    0.75522   0.33294   0.90615   1.000
    H2      H    0.24557   0.06275   0.81761   1.000
    H3      H    0.74559   0.06276   0.81761   1.000
    H4      H    0.24043   0.13819   0.71216   1.000
    H5      H    0.74044   0.13820   0.71216   1.000
    H6      H    0.41482   0.52481   0.61607   1.000
    H7      H    0.91483   0.52481   0.61607   1.000
    H8      H    0.08338   0.52692   0.61605   1.000
    H9      H    0.58339   0.52692   0.61605   1.000
    H10     H    0.07544   0.28251   0.51140   1.000
    H11     H    0.57544   0.28250   0.51142   1.000
    H12     H    0.40643   0.28159   0.51028   1.000
    H13     H    0.90644   0.28160   0.51028   1.000
    H14     H    0.24595   0.16744   0.40609   1.000
    H15     H    0.74595   0.16742   0.40609   1.000
    H16     H    0.25183   0.43748   0.31760   1.000
    H17     H    0.75184   0.43746   0.31761   1.000
    H18     H    0.25758   0.36208   0.21214   1.000
    H19     H    0.75759   0.36206   0.21214   1.000
    H20     H    0.08515   0.97538   0.11637   1.000
    H21     H    0.58516   0.97538   0.11636   1.000
    H22     H    0.41659   0.97332   0.11583   1.000
    H23     H    0.91660   0.97331   0.11584   1.000
    H24     H    0.42501   0.21759   0.01122   1.000
    H25     H    0.92501   0.21756   0.01122   1.000
    H26     H    0.09399   0.21828   0.01035   1.000
    H27     H    0.59401   0.21830   0.01035   1.000
    H28     H    0.24480   0.66704   0.09384   1.000
    H29     H    0.74480   0.66703   0.09384   1.000
    H30     H    0.25444   0.93722   0.18238   1.000
    H31     H    0.75443   0.93721   0.18238   1.000
    H32     H    0.25958   0.86178   0.28783   1.000
    H33     H    0.75958   0.86177   0.28783   1.000
    H34     H    0.08518   0.47516   0.38392   1.000
    H35     H    0.58519   0.47516   0.38392   1.000
    H36     H    0.41662   0.47306   0.38394   1.000
    H37     H    0.91663   0.47305   0.38394   1.000
    H38     H    0.42457   0.71747   0.48857   1.000
    H39     H    0.92458   0.71746   0.48858   1.000
    H40     H    0.09357   0.71838   0.48971   1.000
    H41     H    0.59359   0.71838   0.48971   1.000
    H42     H    0.25406   0.83255   0.59390   1.000
    H43     H    0.75407   0.83254   0.59390   1.000
    H44     H    0.24817   0.56251   0.68238   1.000
    H45     H    0.74818   0.56251   0.68238   1.000
    H46     H    0.24241   0.63791   0.78785   1.000
    H47     H    0.74243   0.63790   0.78785   1.000
    H48     H    0.41485   0.02460   0.88361   1.000
    H49     H    0.91486   0.02459   0.88363   1.000
    H50     H    0.08341   0.02665   0.88416   1.000
    H51     H    0.58342   0.02667   0.88415   1.000
    H52     H    0.07500   0.78238   0.98877   1.000
    H53     H    0.57501   0.78241   0.98877   1.000
    H54     H    0.40601   0.78169   0.98963   1.000
    H55     H    0.90601   0.78167   0.98964   1.000
    C56     C    0.24384   0.27726   0.74843   1.000
    C57     C    0.74384   0.27727   0.74843   1.000
    C58     C    0.24789   0.33044   0.80408   1.000
    C59     C    0.74790   0.33045   0.80408   1.000
    C60     C    0.25159   0.29029   0.86361   1.000
    C61     C    0.75161   0.29029   0.86361   1.000
    C62     C    0.25030   0.19318   0.86901   1.000
    C63     C    0.75033   0.19319   0.86902   1.000
    C64     C    0.24606   0.13823   0.81419   1.000
    C65     C    0.74608   0.13824   0.81420   1.000
    C66     C    0.24310   0.18034   0.75491   1.000
    C67     C    0.74311   0.18034   0.75491   1.000
    C68     C    0.45128   0.47154   0.59211   1.000
    C69     C    0.95129   0.47154   0.59211   1.000
    C70     C    0.04339   0.47250   0.59225   1.000
    C71     C    0.54339   0.47250   0.59225   1.000
    C72     C    0.03880   0.33687   0.53410   1.000
    C73     C    0.53881   0.33686   0.53411   1.000
    C74     C    0.44673   0.33628   0.53361   1.000
    C75     C    0.94674   0.33628   0.53361   1.000
    C76     C    0.25601   0.22310   0.24837   1.000
    C77     C    0.75601   0.22307   0.24837   1.000
    C78     C    0.25290   0.17003   0.30403   1.000
    C79     C    0.75291   0.17001   0.30403   1.000
    C80     C    0.24876   0.21009   0.36357   1.000
    C81     C    0.74877   0.21007   0.36357   1.000
    C82     C    0.24870   0.30713   0.36899   1.000
    C83     C    0.74870   0.30711   0.36899   1.000
    C84     C    0.25210   0.36203   0.31417   1.000
    C85     C    0.75211   0.36201   0.31418   1.000
    C86     C    0.25544   0.31995   0.25487   1.000
    C87     C    0.75545   0.31993   0.25487   1.000
    C88     C    0.04883   0.02860   0.09224   1.000
    C89     C    0.54883   0.02861   0.09223   1.000
    C90     C    0.45672   0.02770   0.09216   1.000
    C91     C    0.95673   0.02768   0.09217   1.000
    C92     C    0.46155   0.16323   0.03398   1.000
    C93     C    0.96155   0.16321   0.03399   1.000
    C94     C    0.05360   0.16369   0.03365   1.000
    C95     C    0.55362   0.16371   0.03364   1.000
    C96     C    0.25617   0.72271   0.25156   1.000
    C97     C    0.75618   0.72270   0.25156   1.000
    C98     C    0.25211   0.66953   0.19591   1.000
    C99     C    0.75212   0.66953   0.19591   1.000
    C100    C    0.24841   0.70969   0.13638   1.000
    C101    C    0.74841   0.70968   0.13638   1.000
    C102    C    0.24970   0.80680   0.13090   1.000
    C103    C    0.74969   0.80678   0.13097   1.000
    C104    C    0.25394   0.86174   0.18579   1.000
    C105    C    0.75394   0.86173   0.18579   1.000
    C106    C    0.25690   0.81964   0.24508   1.000
    C107    C    0.75691   0.81963   0.24508   1.000
    C108    C    0.04873   0.52843   0.40788   1.000
    C109    C    0.54873   0.52844   0.40788   1.000
    C110    C    0.45662   0.52748   0.40774   1.000
    C111    C    0.95663   0.52747   0.40774   1.000
    C112    C    0.46120   0.66311   0.46588   1.000
    C113    C    0.96121   0.66310   0.46589   1.000
    C114    C    0.05327   0.66369   0.46638   1.000
    C115    C    0.55328   0.66370   0.46638   1.000
    C116    C    0.24399   0.77689   0.75162   1.000
    C117    C    0.74400   0.77689   0.75162   1.000
    C118    C    0.24710   0.82996   0.69596   1.000
    C119    C    0.74711   0.82995   0.69596   1.000
    C120    C    0.25124   0.78990   0.63642   1.000
    C121    C    0.75125   0.78989   0.63642   1.000
    C122    C    0.25131   0.69286   0.63100   1.000
    C123    C    0.75131   0.69286   0.63100   1.000
    C124    C    0.24790   0.63795   0.68581   1.000
    C125    C    0.74791   0.63795   0.68580   1.000
    C126    C    0.24456   0.68004   0.74512   1.000
    C127    C    0.74457   0.68003   0.74512   1.000
    C128    C    0.45118   0.97137   0.90775   1.000
    C129    C    0.95118   0.97136   0.90776   1.000
    C130    C    0.04328   0.97228   0.90783   1.000
    C131    C    0.54329   0.97229   0.90782   1.000
    C132    C    0.03846   0.83674   0.96601   1.000
    C133    C    0.53847   0.83677   0.96600   1.000
    C134    C    0.44640   0.83628   0.96634   1.000
    C135    C    0.94640   0.83626   0.96635   1.000
    N136    N    0.24683   0.43314   0.80286   1.000
    N137    N    0.74684   0.43315   0.80286   1.000
    N138    N    0.40336   0.40405   0.56214   1.000
    N139    N    0.90337   0.40405   0.56214   1.000
    N140    N    0.08678   0.40561   0.56279   1.000
    N141    N    0.58679   0.40560   0.56279   1.000
    N142    N    0.25606   0.06758   0.30280   1.000
    N143    N    0.75608   0.06756   0.30282   1.000
    N144    N    0.09687   0.09595   0.06231   1.000
    N145    N    0.59688   0.09597   0.06230   1.000
    N146    N    0.41345   0.09458   0.06258   1.000
    N147    N    0.91345   0.09456   0.06259   1.000
    N148    N    0.25317   0.56683   0.19713   1.000
    N149    N    0.75318   0.56682   0.19713   1.000
    N150    N    0.09664   0.59592   0.43785   1.000
    N151    N    0.59665   0.59592   0.43785   1.000
    N152    N    0.41322   0.59438   0.43720   1.000
    N153    N    0.91323   0.59437   0.43720   1.000
    N154    N    0.24393   0.93241   0.69717   1.000
    N155    N    0.74394   0.93240   0.69717   1.000
    N156    N    0.40313   0.90402   0.93768   1.000
    N157    N    0.90314   0.90401   0.93769   1.000
    N158    N    0.08656   0.90539   0.93740   1.000
    N159    N    0.58657   0.90541   0.93740   1.000
    O160    O    0.31851   0.47660   0.81110   1.000
    O161    O    0.81852   0.47661   0.81115   1.000
    O162    O    0.17372   0.46768   0.79724   1.000
    O163    O    0.67373   0.46769   0.79724   1.000
    O164    O    0.18532   0.02250   0.31129   1.000
    O165    O    0.68536   0.02245   0.31100   1.000
    O166    O    0.33000   0.03496   0.29705   1.000
    O167    O    0.83004   0.03496   0.29700   1.000
    O168    O    0.18149   0.52337   0.18883   1.000
    O169    O    0.68150   0.52337   0.18880   1.000
    O170    O    0.32629   0.53230   0.20275   1.000
    O171    O    0.82629   0.53228   0.20275   1.000
    O172    O    0.31466   0.97750   0.68870   1.000
    O173    O    0.81468   0.97749   0.68870   1.000
    O174    O    0.16998   0.96501   0.70294   1.000
    O175    O    0.67000   0.96501   0.70294   1.000
loop_
    _geom_bond_atom_site_label_1
    _geom_bond_atom_site_label_2
    _geom_bond_distance
    _geom_bond_site_symmetry_2
    _ccdc_geom_bond_type
    H26    C94       1.09103      .   S
    H27    C95       1.09096      .   S
    H24    C92       1.09106      .   S
    H25    C93       1.09113      .   S
    C95    C92       1.39286      .   S
    C95    N145      1.34419      .   S
    C94    C93       1.39260  1_455   S
    C94    N144      1.34417      .   S
    C92    N146      1.34432      .   S
    C93    N147      1.34429      .   S
    N145   C89       1.34371      .   S
    N144   C88       1.34368      .   S
    N146   C90       1.34396      .   S
    N147   C91       1.34392      .   S
    C90    C89       1.39323      .   S
    C90    H22       1.09049  1_545   S
    C91    C88       1.39299  1_655   S
    C91    H23       1.09046  1_545   S
    C89    H21       1.09047  1_545   S
    C88    H20       1.09043  1_545   S
    H29    C101      1.08841      .   S
    H28    C100      1.08841      .   S
    C102   C100      1.40301      .   S
    C102   C104      1.40362      .   S
    C103   C101      1.40289      .   S
    C103   C105      1.40240      .   S
    C101   C99       1.38686      .   S
    C100   C98       1.38687      .   S
    H31    C105      1.08948      .   S
    H30    C104      1.08947      .   S
    C105   C107      1.39370      .   S
    C104   C106      1.39371      .   S
    O169   N149      1.23941      .   S
    O168   N148      1.23932      .   S
    C98    N148      1.48059      .   S
    C98    C96       1.40284      .   S
    C99    N149      1.48061      .   S
    C99    C97       1.40284      .   S
    N149   O171      1.23952      .   S
    N148   O170      1.23952      .   S
    H19    C87       1.08775      .   S
    H18    C86       1.08775      .   S
    C107   C97       1.40261      .   S
    C107   H33       1.08780      .   S
    C106   C96       1.40261      .   S
    C106   H32       1.08781      .   S
    C77    C87       1.40240      .   S
    C77    C79       1.40256      .   S
    C76    C86       1.40241      .   S
    C76    C78       1.40255      .   S
    C87    C85       1.39381      .   S
    C86    C84       1.39362      .   S
    O167   N143      1.23957      .   S
    O166   N142      1.23945      .   S
    N142   C78       1.47911      .   S
    N142   O164      1.23916      .   S
    N143   C79       1.47914      .   S
    N143   O165      1.23821      .   S
    C78    C80       1.38649      .   S
    C79    C81       1.38649      .   S
    C84    H16       1.08942      .   S
    C84    C82       1.40252      .   S
    C85    H17       1.08942      .   S
    C85    C83       1.40235      .   S
    C80    C82       1.40255      .   S
    C80    H14       1.08837      .   S
    C81    C83       1.40256      .   S
    C81    H15       1.08838      .   S
    H34    C108      1.09028      .   S
    H35    C109      1.09030      .   S
    H36    C110      1.09046      .   S
    H37    C111      1.09046      .   S
    C110   C109      1.39324      .   S
    C110   N152      1.34385      .   S
    C111   C108      1.39298  1_655   S
    C111   N153      1.34384      .   S
    C108   N150      1.34367      .   S
    C109   N151      1.34368      .   S
    N153   C113      1.34440      .   S
    N152   C112      1.34432      .   S
    N150   C114      1.34412      .   S
    N151   C115      1.34414      .   S
    C112   C115      1.39286      .   S
    C112   H38       1.09109      .   S
    C113   C114      1.39258  1_655   S
    C113   H39       1.09109      .   S
    C114   H40       1.09102      .   S
    C115   H41       1.09102      .   S
    H12    C74       1.09101      .   S
    H13    C75       1.09100      .   S
    H10    C72       1.09118      .   S
    H11    C73       1.09111      .   S
    C74    C73       1.39286      .   S
    C74    N138      1.34414      .   S
    C75    C72       1.39259  1_655   S
    C75    N139      1.34413      .   S
    C72    N140      1.34440      .   S
    C73    N141      1.34431      .   S
    N139   C69       1.34367      .   S
    N138   C68       1.34368      .   S
    N141   C71       1.34385      .   S
    N140   C70       1.34382      .   S
    C68    C71       1.39324      .   S
    C68    H6        1.09029      .   S
    C69    C70       1.39298  1_655   S
    C69    H7        1.09029      .   S
    C70    H8        1.09046      .   S
    C71    H9        1.09047      .   S
    H43    C121      1.08837      .   S
    H42    C120      1.08838      .   S
    C122   C120      1.40256      .   S
    C122   C124      1.40236      .   S
    C123   C121      1.40256      .   S
    C123   C125      1.40218      .   S
    C120   C118      1.38649      .   S
    C121   C119      1.38649      .   S
    H44    C124      1.08941      .   S
    H45    C125      1.08939      .   S
    C125   C127      1.39401      .   S
    C124   C126      1.39381      .   S
    O173   N155      1.23909      .   S
    O172   N154      1.23908      .   S
    C119   N155      1.47913      .   S
    C119   C117      1.40255      .   S
    C118   N154      1.47911      .   S
    C118   C116      1.40257      .   S
    N155   O175      1.23948      .   S
    N154   O174      1.23948      .   S
    H4     C66       1.08780      .   S
    H5     C67       1.08781      .   S
    C126   C116      1.40239      .   S
    C126   H46       1.08775      .   S
    C127   C117      1.40240      .   S
    C127   H47       1.08775      .   S
    C56    C66       1.40262      .   S
    C56    C58       1.40283      .   S
    C57    C67       1.40261      .   S
    C57    C59       1.40285      .   S
    C66    C64       1.39352      .   S
    C67    C65       1.39370      .   S
    O163   N137      1.23951      .   S
    O162   N136      1.23951      .   S
    N137   C59       1.48059      .   S
    N137   O161      1.23929      .   S
    N136   C58       1.48059      .   S
    N136   O160      1.23914      .   S
    C58    C60       1.38688      .   S
    C59    C61       1.38687      .   S
    C64    H2        1.08949      .   S
    C64    C62       1.40239      .   S
    C65    H3        1.08948      .   S
    C65    C63       1.40241      .   S
    C61    C63       1.40288      .   S
    C61    H1        1.08842      .   S
    C60    C62       1.40287      .   S
    C60    H0        1.08841      .   S
    H48    C128      1.09053  1_545   S
    H49    C129      1.09047  1_545   S
    H51    C131      1.09047  1_545   S
    H50    C130      1.09049  1_545   S
    C128   C131      1.39324      .   S
    C128   N156      1.34368      .   S
    C129   C130      1.39297  1_655   S
    C129   N157      1.34372      .   S
    C131   N159      1.34391      .   S
    C130   N158      1.34387      .   S
    N159   C133      1.34430      .   S
    N158   C132      1.34443      .   S
    N156   C134      1.34416      .   S
    N157   C135      1.34419      .   S
    C133   C134      1.39286      .   S
    C133   H53       1.09112      .   S
    C132   C135      1.39260  1_455   S
    C132   H52       1.09106      .   S
    C134   H54       1.09094      .   S
    C135   H55       1.09096      .   S
