# CIF file generated by openbabel 2.4.90, see http://openbabel.sf.net
data_I
_chemical_name_common ''
_cell_length_a 15.131
_cell_length_b 14.406
_cell_length_c 21.129
_cell_angle_alpha 90.026
_cell_angle_beta 90.03
_cell_angle_gamma 92.656
_space_group_name_H-M_alt 'P 1'
_space_group_name_Hall 'P 1'
loop_
    _symmetry_equiv_pos_as_xyz
    x,y,z
loop_
    _atom_site_label
    _atom_site_type_symbol
    _atom_site_fract_x
    _atom_site_fract_y
    _atom_site_fract_z
    _atom_site_occupancy
    Cd0     Cd   0.74444   0.39660   0.56572   1.000
    Cd1     Cd   0.25577   0.10342   0.06569   1.000
    Cd2     Cd   0.75578   0.10342   0.06569   1.000
    Cd3     Cd   0.25557   0.60337   0.43426   1.000
    Cd4     Cd   0.75558   0.60337   0.43420   1.000
    Cd5     Cd   0.24423   0.89655   0.93430   1.000
    Cd6     Cd   0.74424   0.89655   0.93430   1.000
    H7      H    0.25520   0.33293   0.90615   1.000
    H8      H    0.75522   0.33294   0.90615   1.000
    H9      H    0.24557   0.06275   0.81761   1.000
    H10     H    0.74559   0.06276   0.81761   1.000
    H11     H    0.24043   0.13819   0.71216   1.000
    H12     H    0.74044   0.13820   0.71216   1.000
    H13     H    0.41482   0.52481   0.61607   1.000
    H14     H    0.91483   0.52481   0.61607   1.000
    H15     H    0.08338   0.52692   0.61605   1.000
    H16     H    0.58339   0.52692   0.61605   1.000
    H17     H    0.07544   0.28251   0.51140   1.000
    H18     H    0.57544   0.28250   0.51142   1.000
    H19     H    0.40643   0.28159   0.51028   1.000
    H20     H    0.90644   0.28160   0.51028   1.000
    H21     H    0.24595   0.16744   0.40609   1.000
    H22     H    0.74595   0.16742   0.40609   1.000
    H23     H    0.25183   0.43748   0.31760   1.000
    H24     H    0.75184   0.43746   0.31761   1.000
    H25     H    0.25758   0.36208   0.21214   1.000
    H26     H    0.75759   0.36206   0.21214   1.000
    H27     H    0.08515   0.97538   0.11637   1.000
    H28     H    0.58516   0.97538   0.11636   1.000
    H29     H    0.41659   0.97332   0.11583   1.000
    H30     H    0.91660   0.97331   0.11584   1.000
    H31     H    0.42501   0.21759   0.01122   1.000
    Cd32    Cd   0.24443   0.39661   0.56570   1.000
    H33     H    0.92501   0.21756   0.01122   1.000
    H34     H    0.09399   0.21828   0.01035   1.000
    H35     H    0.59401   0.21830   0.01035   1.000
    H36     H    0.24480   0.66704   0.09384   1.000
    H37     H    0.74480   0.66703   0.09384   1.000
    H38     H    0.25444   0.93722   0.18238   1.000
    H39     H    0.75443   0.93721   0.18238   1.000
    H40     H    0.25958   0.86178   0.28783   1.000
    H41     H    0.75958   0.86177   0.28783   1.000
    H42     H    0.08518   0.47516   0.38392   1.000
    H43     H    0.58519   0.47516   0.38392   1.000
    H44     H    0.41662   0.47306   0.38394   1.000
    H45     H    0.91663   0.47305   0.38394   1.000
    H46     H    0.42457   0.71747   0.48857   1.000
    H47     H    0.92458   0.71746   0.48858   1.000
    H48     H    0.09357   0.71838   0.48971   1.000
    H49     H    0.59359   0.71838   0.48971   1.000
    H50     H    0.25406   0.83255   0.59390   1.000
    H51     H    0.75407   0.83254   0.59390   1.000
    H52     H    0.24817   0.56251   0.68238   1.000
    H53     H    0.74818   0.56251   0.68238   1.000
    H54     H    0.24241   0.63791   0.78785   1.000
    H55     H    0.74243   0.63790   0.78785   1.000
    H56     H    0.41485   0.02460   0.88361   1.000
    H57     H    0.91486   0.02459   0.88363   1.000
    H58     H    0.08341   0.02665   0.88416   1.000
    H59     H    0.58342   0.02667   0.88415   1.000
    H60     H    0.07500   0.78238   0.98877   1.000
    H61     H    0.57501   0.78241   0.98877   1.000
    H62     H    0.40601   0.78169   0.98963   1.000
    H63     H    0.90601   0.78167   0.98964   1.000
    C64     C    0.24384   0.27726   0.74843   1.000
    C65     C    0.74384   0.27727   0.74843   1.000
    C66     C    0.24789   0.33044   0.80408   1.000
    C67     C    0.74790   0.33045   0.80408   1.000
    C68     C    0.25159   0.29029   0.86361   1.000
    C69     C    0.75161   0.29029   0.86361   1.000
    C70     C    0.25030   0.19318   0.86901   1.000
    C71     C    0.75033   0.19319   0.86902   1.000
    C72     C    0.24606   0.13823   0.81419   1.000
    C73     C    0.74608   0.13824   0.81420   1.000
    C74     C    0.24310   0.18034   0.75491   1.000
    C75     C    0.74311   0.18034   0.75491   1.000
    C76     C    0.24279   0.31916   0.68331   1.000
    C77     C    0.74279   0.31916   0.68331   1.000
    C78     C    0.25313   0.15141   0.93387   1.000
    C79     C    0.75315   0.15141   0.93388   1.000
    C80     C    0.45128   0.47154   0.59211   1.000
    C81     C    0.95129   0.47154   0.59211   1.000
    C82     C    0.04339   0.47250   0.59225   1.000
    C83     C    0.54339   0.47250   0.59225   1.000
    C84     C    0.03880   0.33687   0.53410   1.000
    C85     C    0.53881   0.33686   0.53411   1.000
    C86     C    0.44673   0.33628   0.53361   1.000
    C87     C    0.94674   0.33628   0.53361   1.000
    C88     C    0.25601   0.22310   0.24837   1.000
    C89     C    0.75601   0.22307   0.24837   1.000
    C90     C    0.25290   0.17003   0.30403   1.000
    C91     C    0.75291   0.17001   0.30403   1.000
    C92     C    0.24876   0.21009   0.36357   1.000
    C93     C    0.74877   0.21007   0.36357   1.000
    C94     C    0.24870   0.30713   0.36899   1.000
    C95     C    0.74870   0.30711   0.36899   1.000
    C96     C    0.25210   0.36203   0.31417   1.000
    C97     C    0.75211   0.36201   0.31418   1.000
    C98     C    0.25544   0.31995   0.25487   1.000
    C99     C    0.75545   0.31993   0.25487   1.000
    O100    O    0.77054   0.23452   0.13625   1.000
    O101    O    0.24806   0.43683   0.44137   1.000
    O102    O    0.74807   0.43681   0.44137   1.000
    O103    O    0.24093   0.29307   0.48080   1.000
    C104    C    0.25737   0.18103   0.18320   1.000
    C105    C    0.75738   0.18101   0.18329   1.000
    C106    C    0.24557   0.34876   0.43388   1.000
    C107    C    0.74556   0.34874   0.43388   1.000
    C108    C    0.04883   0.02860   0.09224   1.000
    C109    C    0.54883   0.02861   0.09223   1.000
    C110    C    0.45672   0.02770   0.09216   1.000
    C111    C    0.95673   0.02768   0.09217   1.000
    C112    C    0.46155   0.16323   0.03398   1.000
    C113    C    0.96155   0.16321   0.03399   1.000
    C114    C    0.05360   0.16369   0.03365   1.000
    C115    C    0.55362   0.16371   0.03364   1.000
    C116    C    0.25617   0.72271   0.25156   1.000
    C117    C    0.75618   0.72270   0.25156   1.000
    C118    C    0.25211   0.66953   0.19591   1.000
    C119    C    0.75212   0.66953   0.19591   1.000
    C120    C    0.24841   0.70969   0.13638   1.000
    C121    C    0.74841   0.70968   0.13638   1.000
    C122    C    0.24970   0.80680   0.13090   1.000
    C123    C    0.74969   0.80678   0.13097   1.000
    C124    C    0.25394   0.86174   0.18579   1.000
    C125    C    0.75394   0.86173   0.18579   1.000
    C126    C    0.25690   0.81964   0.24508   1.000
    C127    C    0.75691   0.81963   0.24508   1.000
    C128    C    0.25722   0.68082   0.31668   1.000
    C129    C    0.75723   0.68081   0.31668   1.000
    C130    C    0.24687   0.84857   0.06611   1.000
    C131    C    0.74687   0.84856   0.06611   1.000
    C132    C    0.04873   0.52843   0.40788   1.000
    C133    C    0.54873   0.52844   0.40788   1.000
    C134    C    0.45662   0.52748   0.40774   1.000
    C135    C    0.95663   0.52747   0.40774   1.000
    C136    C    0.46120   0.66311   0.46588   1.000
    C137    C    0.96121   0.66310   0.46589   1.000
    C138    C    0.05327   0.66369   0.46638   1.000
    C139    C    0.55328   0.66370   0.46638   1.000
    C140    C    0.24399   0.77689   0.75162   1.000
    C141    C    0.74400   0.77689   0.75162   1.000
    C142    C    0.24710   0.82996   0.69596   1.000
    C143    C    0.74711   0.82995   0.69596   1.000
    C144    C    0.25124   0.78990   0.63642   1.000
    C145    C    0.75125   0.78989   0.63642   1.000
    C146    C    0.25131   0.69286   0.63100   1.000
    C147    C    0.75131   0.69286   0.63100   1.000
    C148    C    0.24790   0.63795   0.68581   1.000
    C149    C    0.74791   0.63795   0.68580   1.000
    C150    C    0.24456   0.68004   0.74512   1.000
    C151    C    0.74457   0.68003   0.74512   1.000
    C152    C    0.24263   0.81895   0.81670   1.000
    C153    C    0.74264   0.81895   0.81670   1.000
    C154    C    0.25444   0.65123   0.56611   1.000
    C155    C    0.75445   0.65122   0.56611   1.000
    C156    C    0.45118   0.97137   0.90775   1.000
    C157    C    0.95118   0.97136   0.90776   1.000
    C158    C    0.04328   0.97228   0.90783   1.000
    C159    C    0.54329   0.97229   0.90782   1.000
    C160    C    0.03846   0.83674   0.96601   1.000
    C161    C    0.53847   0.83677   0.96600   1.000
    C162    C    0.44640   0.83628   0.96634   1.000
    C163    C    0.94640   0.83626   0.96635   1.000
    N164    N    0.24683   0.43314   0.80286   1.000
    N165    N    0.74684   0.43315   0.80286   1.000
    N166    N    0.40336   0.40405   0.56214   1.000
    N167    N    0.90337   0.40405   0.56214   1.000
    N168    N    0.08678   0.40561   0.56279   1.000
    N169    N    0.58679   0.40560   0.56279   1.000
    N170    N    0.25606   0.06758   0.30280   1.000
    N171    N    0.75608   0.06756   0.30282   1.000
    N172    N    0.09687   0.09595   0.06231   1.000
    N173    N    0.59688   0.09597   0.06230   1.000
    N174    N    0.41345   0.09458   0.06258   1.000
    N175    N    0.91345   0.09456   0.06259   1.000
    N176    N    0.25317   0.56683   0.19713   1.000
    N177    N    0.75318   0.56682   0.19713   1.000
    N178    N    0.09664   0.59592   0.43785   1.000
    N179    N    0.59665   0.59592   0.43785   1.000
    N180    N    0.41322   0.59438   0.43720   1.000
    N181    N    0.91323   0.59437   0.43720   1.000
    N182    N    0.24393   0.93241   0.69717   1.000
    N183    N    0.74394   0.93240   0.69717   1.000
    N184    N    0.40313   0.90402   0.93768   1.000
    N185    N    0.90314   0.90401   0.93769   1.000
    N186    N    0.08656   0.90539   0.93740   1.000
    N187    N    0.58657   0.90541   0.93740   1.000
    O188    O    0.25664   0.40717   0.67772   1.000
    O189    O    0.75663   0.40717   0.67772   1.000
    O190    O    0.22941   0.26558   0.63629   1.000
    O191    O    0.72942   0.26558   0.63600   1.000
    O192    O    0.24865   0.06331   0.94129   1.000
    O193    O    0.74868   0.06332   0.94129   1.000
    O194    O    0.25935   0.20700   0.98090   1.000
    O195    O    0.75936   0.20701   0.98090   1.000
    O196    O    0.31851   0.47660   0.81110   1.000
    O197    O    0.81852   0.47661   0.81115   1.000
    O198    O    0.17372   0.46768   0.79724   1.000
    O199    O    0.67373   0.46769   0.79724   1.000
    O200    O    0.24390   0.09296   0.17774   1.000
    O201    O    0.74390   0.09294   0.17774   1.000
    O202    O    0.27053   0.23453   0.13625   1.000
    O203    O    0.74094   0.29306   0.48088   1.000
    O204    O    0.18532   0.02250   0.31129   1.000
    O205    O    0.68536   0.02245   0.31100   1.000
    O206    O    0.33000   0.03496   0.29705   1.000
    O207    O    0.83004   0.03496   0.29700   1.000
    O208    O    0.24336   0.59281   0.32226   1.000
    O209    O    0.74339   0.59280   0.32220   1.000
    O210    O    0.27059   0.73440   0.36300   1.000
    O211    O    0.77061   0.73439   0.36300   1.000
    O212    O    0.25136   0.93666   0.05870   1.000
    O213    O    0.75134   0.93666   0.05870   1.000
    O214    O    0.24066   0.79297   0.01909   1.000
    O215    O    0.74066   0.79297   0.01909   1.000
    O216    O    0.18149   0.52337   0.18883   1.000
    O217    O    0.68150   0.52337   0.18880   1.000
    O218    O    0.32629   0.53230   0.20275   1.000
    O219    O    0.82629   0.53228   0.20275   1.000
    O220    O    0.25611   0.90703   0.82225   1.000
    O221    O    0.75611   0.90702   0.82225   1.000
    O222    O    0.22947   0.76545   0.86374   1.000
    O223    O    0.72948   0.76545   0.86374   1.000
    O224    O    0.25194   0.56315   0.55862   1.000
    O225    O    0.75196   0.56315   0.55862   1.000
    O226    O    0.25907   0.70691   0.51911   1.000
    O227    O    0.75908   0.70691   0.51911   1.000
    O228    O    0.31466   0.97750   0.68870   1.000
    O229    O    0.81468   0.97749   0.68870   1.000
    O230    O    0.16998   0.96501   0.70294   1.000
    O231    O    0.67000   0.96501   0.70294   1.000
loop_
    _geom_bond_atom_site_label_1
    _geom_bond_atom_site_label_2
    _geom_bond_distance
    _geom_bond_site_symmetry_2
    _ccdc_geom_bond_type
    H34    C114      1.09103      .   S
    H35    C115      1.09096      .   S
    H31    C112      1.09106      .   S
    H33    C113      1.09113      .   S
    O214   C130      1.27655      .   S
    O214   Cd5       2.33115  1_554   S
    O215   C131      1.27650      .   S
    O215   Cd6       2.33119  1_554   S
    C115   C112      1.39286      .   S
    C115   N173      1.34419      .   S
    C114   C113      1.39260  1_455   S
    C114   N172      1.34417      .   S
    C112   N174      1.34432      .   S
    C113   N175      1.34429      .   S
    O213   Cd2       2.40464  1_565   S
    O213   C131      1.27747      .   S
    O212   Cd1       2.40463  1_565   S
    O212   C130      1.27744      .   S
    N173   Cd2       2.40275      .   S
    N173   C109      1.34371      .   S
    N172   Cd1       2.40277      .   S
    N172   C108      1.34368      .   S
    N174   Cd1       2.39605      .   S
    N174   C110      1.34396      .   S
    N175   Cd2       2.39603      .   S
    N175   C111      1.34392      .   S
    Cd2    O100      2.40785      .   S
    Cd2    O201      2.37874      .   S
    Cd2    O195      2.33121  1_554   S
    Cd1    O202      2.40791      .   S
    Cd1    O200      2.37872      .   S
    Cd1    O194      2.33113  1_554   S
    C131   C123      1.49839      .   S
    C130   C122      1.49702      .   S
    C110   C109      1.39323      .   S
    C110   H29       1.09049  1_545   S
    C111   C108      1.39299  1_655   S
    C111   H30       1.09046  1_545   S
    C109   H28       1.09047  1_545   S
    C108   H27       1.09043  1_545   S
    H37    C121      1.08841      .   S
    H36    C120      1.08841      .   S
    C122   C120      1.40301      .   S
    C122   C124      1.40362      .   S
    C123   C121      1.40289      .   S
    C123   C125      1.40240      .   S
    O202   C104      1.26667      .   S
    O100   C105      1.26821      .   S
    C121   C119      1.38686      .   S
    C120   C118      1.38687      .   S
    O200   C104      1.28084      .   S
    O201   C105      1.28101      .   S
    H39    C125      1.08948      .   S
    H38    C124      1.08947      .   S
    C104   C88       1.50471      .   S
    C105   C89       1.50295      .   S
    C125   C127      1.39370      .   S
    C124   C126      1.39371      .   S
    O217   N177      1.23941      .   S
    O216   N176      1.23932      .   S
    C118   N176      1.48059      .   S
    C118   C116      1.40284      .   S
    C119   N177      1.48061      .   S
    C119   C117      1.40284      .   S
    N177   O219      1.23952      .   S
    N176   O218      1.23952      .   S
    H26    C99       1.08775      .   S
    H25    C98       1.08775      .   S
    C127   C117      1.40261      .   S
    C127   H41       1.08780      .   S
    C126   C116      1.40261      .   S
    C126   H40       1.08781      .   S
    C89    C99       1.40240      .   S
    C89    C91       1.40256      .   S
    C88    C98       1.40241      .   S
    C88    C90       1.40255      .   S
    C117   C129      1.50308      .   S
    C116   C128      1.50309      .   S
    C99    C97       1.39381      .   S
    C98    C96       1.39362      .   S
    O207   N171      1.23957      .   S
    O206   N170      1.23945      .   S
    N170   C90       1.47911      .   S
    N170   O204      1.23916      .   S
    N171   C91       1.47914      .   S
    N171   O205      1.23821      .   S
    C90    C92       1.38649      .   S
    C91    C93       1.38649      .   S
    C96    H23       1.08942      .   S
    C96    C94       1.40252      .   S
    C97    H24       1.08942      .   S
    C97    C95       1.40235      .   S
    C129   O209      1.28084      .   S
    C129   O211      1.25670      .   S
    C128   O208      1.28094      .   S
    C128   O210      1.25668      .   S
    O209   Cd4       2.37779      .   S
    O208   Cd3       2.37781      .   S
    O211   Cd4       2.41680      .   S
    O210   Cd3       2.41755      .   S
    C92    C94       1.40255      .   S
    C92    H21       1.08837      .   S
    C93    C95       1.40256      .   S
    C93    H22       1.08838      .   S
    C95    C107      1.49794      .   S
    C94    C106      1.49789      .   S
    H42    C132      1.09028      .   S
    H43    C133      1.09030      .   S
    H44    C134      1.09046      .   S
    H45    C135      1.09046      .   S
    C134   C133      1.39324      .   S
    C134   N180      1.34385      .   S
    C135   C132      1.39298  1_655   S
    C135   N181      1.34384      .   S
    C132   N178      1.34367      .   S
    C133   N179      1.34368      .   S
    C106   O101      1.27733      .   S
    C106   O103      1.27552      .   S
    C107   O102      1.27734      .   S
    C107   O203      1.27678      .   S
    Cd4    N181      2.39568      .   S
    Cd4    N179      2.40345      .   S
    Cd4    O102      2.40164      .   S
    Cd4    O227      2.33164      .   S
    Cd3    N180      2.39567      .   S
    Cd3    N178      2.40343      .   S
    Cd3    O101      2.40146      .   S
    Cd3    O226      2.33062      .   S
    N181   C137      1.34440      .   S
    N180   C136      1.34432      .   S
    N178   C138      1.34412      .   S
    N179   C139      1.34414      .   S
    C136   C139      1.39286      .   S
    C136   H46       1.09109      .   S
    C137   C138      1.39258  1_655   S
    C137   H47       1.09109      .   S
    C138   H48       1.09102      .   S
    C139   H49       1.09102      .   S
    O103   Cd32      2.33144      .   S
    O203   Cd0       2.33051      .   S
    H19    C86       1.09101      .   S
    H20    C87       1.09100      .   S
    H17    C84       1.09118      .   S
    H18    C85       1.09111      .   S
    O227   C155      1.27680      .   S
    O226   C154      1.27679      .   S
    C86    C85       1.39286      .   S
    C86    N166      1.34414      .   S
    C87    C84       1.39259  1_655   S
    C87    N167      1.34413      .   S
    C84    N168      1.34440      .   S
    C85    N169      1.34431      .   S
    O224   Cd32      2.40146      .   S
    O224   C154      1.27734      .   S
    O225   Cd0       2.40151      .   S
    O225   C155      1.27735      .   S
    N167   Cd0       2.40344      .   S
    N167   C81       1.34367      .   S
    N166   Cd32      2.40339      .   S
    N166   C80       1.34368      .   S
    N169   Cd0       2.39565      .   S
    N169   C83       1.34385      .   S
    N168   Cd32      2.39566      .   S
    N168   C82       1.34382      .   S
    Cd32   O190      2.40880      .   S
    Cd32   O188      2.37823      .   S
    Cd0    O191      2.40471      .   S
    Cd0    O189      2.37780      .   S
    C155   C147      1.49791      .   S
    C154   C146      1.49792      .   S
    C80    C83       1.39324      .   S
    C80    H13       1.09029      .   S
    C81    C82       1.39298  1_655   S
    C81    H14       1.09029      .   S
    C82    H15       1.09046      .   S
    C83    H16       1.09047      .   S
    H51    C145      1.08837      .   S
    H50    C144      1.08838      .   S
    C146   C144      1.40256      .   S
    C146   C148      1.40236      .   S
    C147   C145      1.40256      .   S
    C147   C149      1.40218      .   S
    O191   C77       1.27304      .   S
    O190   C76       1.26823      .   S
    C144   C142      1.38649      .   S
    C145   C143      1.38649      .   S
    O188   C76       1.28097      .   S
    O189   C77       1.28097      .   S
    H52    C148      1.08941      .   S
    H53    C149      1.08939      .   S
    C76    C64       1.50309      .   S
    C77    C65       1.50308      .   S
    C149   C151      1.39401      .   S
    C148   C150      1.39381      .   S
    O229   N183      1.23909      .   S
    O228   N182      1.23908      .   S
    C143   N183      1.47913      .   S
    C143   C141      1.40255      .   S
    C142   N182      1.47911      .   S
    C142   C140      1.40257      .   S
    N183   O231      1.23948      .   S
    N182   O230      1.23948      .   S
    H11    C74       1.08780      .   S
    H12    C75       1.08781      .   S
    C150   C140      1.40239      .   S
    C150   H54       1.08775      .   S
    C151   C141      1.40240      .   S
    C151   H55       1.08775      .   S
    C64    C74       1.40262      .   S
    C64    C66       1.40283      .   S
    C65    C75       1.40261      .   S
    C65    C67       1.40285      .   S
    C140   C152      1.50296      .   S
    C141   C153      1.50296      .   S
    C74    C72       1.39352      .   S
    C75    C73       1.39370      .   S
    O199   N165      1.23951      .   S
    O198   N164      1.23951      .   S
    N165   C67       1.48059      .   S
    N165   O197      1.23929      .   S
    N164   C66       1.48059      .   S
    N164   O196      1.23914      .   S
    C66    C68       1.38688      .   S
    C67    C69       1.38687      .   S
    C72    H9        1.08949      .   S
    C72    C70       1.40239      .   S
    C73    H10       1.08948      .   S
    C73    C71       1.40241      .   S
    C153   O221      1.28101      .   S
    C153   O223      1.26818      .   S
    C152   O220      1.28101      .   S
    C152   O222      1.26818      .   S
    O220   Cd5       2.37873      .   S
    O221   Cd6       2.37873      .   S
    C69    C71       1.40288      .   S
    C69    H8        1.08842      .   S
    C68    C70       1.40287      .   S
    C68    H7        1.08841      .   S
    O223   Cd6       2.40788      .   S
    O222   Cd5       2.40786      .   S
    C70    C78       1.49837      .   S
    C71    C79       1.49839      .   S
    H56    C156      1.09053  1_545   S
    H57    C157      1.09047  1_545   S
    H59    C159      1.09047  1_545   S
    H58    C158      1.09049  1_545   S
    C156   C159      1.39324      .   S
    C156   N184      1.34368      .   S
    C157   C158      1.39297  1_655   S
    C157   N185      1.34372      .   S
    C159   N187      1.34391      .   S
    C158   N186      1.34387      .   S
    C78    O192      1.27748      .   S
    C78    O194      1.27670      .   S
    C79    O193      1.27746      .   S
    C79    O195      1.27651      .   S
    Cd6    N187      2.39603      .   S
    Cd6    N185      2.40275      .   S
    Cd6    O193      2.40467  1_565   S
    Cd5    N186      2.39604      .   S
    Cd5    N184      2.40279      .   S
    Cd5    O192      2.40460  1_565   S
    N187   C161      1.34430      .   S
    N186   C160      1.34443      .   S
    N184   C162      1.34416      .   S
    N185   C163      1.34419      .   S
    C161   C162      1.39286      .   S
    C161   H61       1.09112      .   S
    C160   C163      1.39260  1_455   S
    C160   H60       1.09106      .   S
    C162   H62       1.09094      .   S
    C163   H63       1.09096      .   S
