# CIF file generated by openbabel 2.4.90, see http://openbabel.sf.net
data_I
_chemical_name_common ''
_cell_length_a 15.131
_cell_length_b 14.406
_cell_length_c 21.129
_cell_angle_alpha 90.026
_cell_angle_beta 90.03
_cell_angle_gamma 92.656
_space_group_name_H-M_alt 'P 1'
_space_group_name_Hall 'P 1'
loop_
    _symmetry_equiv_pos_as_xyz
    x,y,z
loop_
    _atom_site_label
    _atom_site_type_symbol
    _atom_site_fract_x
    _atom_site_fract_y
    _atom_site_fract_z
    _atom_site_occupancy
    Cd0     Cd   0.74444   0.39660   0.56572   1.000
    Cd1     Cd   0.25577   0.10342   0.06569   1.000
    Cd2     Cd   0.75578   0.10342   0.06569   1.000
    Cd3     Cd   0.25557   0.60337   0.43426   1.000
    Cd4     Cd   0.75558   0.60337   0.43420   1.000
    Cd5     Cd   0.24423   0.89655   0.93430   1.000
    Cd6     Cd   0.74424   0.89655   0.93430   1.000
    Cd7     Cd   0.24443   0.39661   0.56570   1.000
    C8      C    0.24279   0.31916   0.68331   1.000
    C9      C    0.74279   0.31916   0.68331   1.000
    C10     C    0.25313   0.15141   0.93387   1.000
    C11     C    0.75315   0.15141   0.93388   1.000
    O12     O    0.77054   0.23452   0.13625   1.000
    O13     O    0.24806   0.43683   0.44137   1.000
    O14     O    0.74807   0.43681   0.44137   1.000
    O15     O    0.24093   0.29307   0.48080   1.000
    C16     C    0.25737   0.18103   0.18320   1.000
    C17     C    0.75738   0.18101   0.18329   1.000
    C18     C    0.24557   0.34876   0.43388   1.000
    C19     C    0.74556   0.34874   0.43388   1.000
    C20     C    0.25722   0.68082   0.31668   1.000
    C21     C    0.75723   0.68081   0.31668   1.000
    C22     C    0.24687   0.84857   0.06611   1.000
    C23     C    0.74687   0.84856   0.06611   1.000
    C24     C    0.24263   0.81895   0.81670   1.000
    C25     C    0.74264   0.81895   0.81670   1.000
    C26     C    0.25444   0.65123   0.56611   1.000
    C27     C    0.75445   0.65122   0.56611   1.000
    O28     O    0.25664   0.40717   0.67772   1.000
    O29     O    0.75663   0.40717   0.67772   1.000
    O30     O    0.22941   0.26558   0.63629   1.000
    O31     O    0.72942   0.26558   0.63600   1.000
    O32     O    0.24865   0.06331   0.94129   1.000
    O33     O    0.74868   0.06332   0.94129   1.000
    O34     O    0.25935   0.20700   0.98090   1.000
    O35     O    0.75936   0.20701   0.98090   1.000
    O36     O    0.24390   0.09296   0.17774   1.000
    O37     O    0.74390   0.09294   0.17774   1.000
    O38     O    0.27053   0.23453   0.13625   1.000
    O39     O    0.74094   0.29306   0.48088   1.000
    O40     O    0.24336   0.59281   0.32226   1.000
    O41     O    0.74339   0.59280   0.32220   1.000
    O42     O    0.27059   0.73440   0.36300   1.000
    O43     O    0.77061   0.73439   0.36300   1.000
    O44     O    0.25136   0.93666   0.05870   1.000
    O45     O    0.75134   0.93666   0.05870   1.000
    O46     O    0.24066   0.79297   0.01909   1.000
    O47     O    0.74066   0.79297   0.01909   1.000
    O48     O    0.25611   0.90703   0.82225   1.000
    O49     O    0.75611   0.90702   0.82225   1.000
    O50     O    0.22947   0.76545   0.86374   1.000
    O51     O    0.72948   0.76545   0.86374   1.000
    O52     O    0.25194   0.56315   0.55862   1.000
    O53     O    0.75196   0.56315   0.55862   1.000
    O54     O    0.25907   0.70691   0.51911   1.000
    O55     O    0.75908   0.70691   0.51911   1.000
loop_
    _geom_bond_atom_site_label_1
    _geom_bond_atom_site_label_2
    _geom_bond_distance
    _geom_bond_site_symmetry_2
    _ccdc_geom_bond_type
    O46    C22       1.27655      .   S
    O46    Cd5       2.33115  1_554   S
    O47    C23       1.27650      .   S
    O47    Cd6       2.33119  1_554   S
    O45    Cd2       2.40464  1_565   S
    O45    C23       1.27747      .   S
    O44    Cd1       2.40463  1_565   S
    O44    C22       1.27744      .   S
    Cd2    O12       2.40785      .   S
    Cd2    O37       2.37874      .   S
    Cd2    O35       2.33121  1_554   S
    Cd1    O38       2.40791      .   S
    Cd1    O36       2.37872      .   S
    Cd1    O34       2.33113  1_554   S
    O38    C16       1.26667      .   S
    O12    C17       1.26821      .   S
    O36    C16       1.28084      .   S
    O37    C17       1.28101      .   S
    C21    O41       1.28084      .   S
    C21    O43       1.25670      .   S
    C20    O40       1.28094      .   S
    C20    O42       1.25668      .   S
    O41    Cd4       2.37779      .   S
    O40    Cd3       2.37781      .   S
    O43    Cd4       2.41680      .   S
    O42    Cd3       2.41755      .   S
    C18    O13       1.27733      .   S
    C18    O15       1.27552      .   S
    C19    O14       1.27734      .   S
    C19    O39       1.27678      .   S
    Cd4    O14       2.40164      .   S
    Cd4    O55       2.33164      .   S
    Cd3    O13       2.40146      .   S
    Cd3    O54       2.33062      .   S
    O15    Cd7       2.33144      .   S
    O39    Cd0       2.33051      .   S
    O55    C27       1.27680      .   S
    O54    C26       1.27679      .   S
    O52    Cd7       2.40146      .   S
    O52    C26       1.27734      .   S
    O53    Cd0       2.40151      .   S
    O53    C27       1.27735      .   S
    Cd7    O30       2.40880      .   S
    Cd7    O28       2.37823      .   S
    Cd0    O31       2.40471      .   S
    Cd0    O29       2.37780      .   S
    O31    C9        1.27304      .   S
    O30    C8        1.26823      .   S
    O28    C8        1.28097      .   S
    O29    C9        1.28097      .   S
    C25    O49       1.28101      .   S
    C25    O51       1.26818      .   S
    C24    O48       1.28101      .   S
    C24    O50       1.26818      .   S
    O48    Cd5       2.37873      .   S
    O49    Cd6       2.37873      .   S
    O51    Cd6       2.40788      .   S
    O50    Cd5       2.40786      .   S
    C10    O32       1.27748      .   S
    C10    O34       1.27670      .   S
    C11    O33       1.27746      .   S
    C11    O35       1.27651      .   S
    Cd6    O33       2.40467  1_565   S
    Cd5    O32       2.40460  1_565   S
