# CIF file generated by openbabel 2.4.90, see http://openbabel.sf.net
data_I
_chemical_name_common ''
_cell_length_a 15.131
_cell_length_b 14.406
_cell_length_c 21.129
_cell_angle_alpha 90.026
_cell_angle_beta 90.03
_cell_angle_gamma 92.656
_space_group_name_H-M_alt 'P 1'
_space_group_name_Hall 'P 1'
loop_
    _symmetry_equiv_pos_as_xyz
    x,y,z
loop_
    _atom_site_label
    _atom_site_type_symbol
    _atom_site_fract_x
    _atom_site_fract_y
    _atom_site_fract_z
    _atom_site_occupancy
    C0      C    0.24279   0.31916   0.68331   1.000
    C1      C    0.74279   0.31916   0.68331   1.000
    C2      C    0.25313   0.15141   0.93387   1.000
    C3      C    0.75315   0.15141   0.93388   1.000
    C4      C    0.25737   0.18103   0.18320   1.000
    C5      C    0.75738   0.18101   0.18329   1.000
    C6      C    0.24557   0.34876   0.43388   1.000
    C7      C    0.74556   0.34874   0.43388   1.000
    C8      C    0.25722   0.68082   0.31668   1.000
    C9      C    0.75723   0.68081   0.31668   1.000
    C10     C    0.24687   0.84857   0.06611   1.000
    C11     C    0.74687   0.84856   0.06611   1.000
    C12     C    0.24263   0.81895   0.81670   1.000
    C13     C    0.74264   0.81895   0.81670   1.000
    C14     C    0.25444   0.65123   0.56611   1.000
    C15     C    0.75445   0.65122   0.56611   1.000
