# CIF file generated by openbabel 2.4.90, see http://openbabel.sf.net
data_I
_chemical_name_common ''
_cell_length_a 15.131
_cell_length_b 14.406
_cell_length_c 21.129
_cell_angle_alpha 90.026
_cell_angle_beta 90.03
_cell_angle_gamma 92.656
_space_group_name_H-M_alt 'P 1'
_space_group_name_Hall 'P 1'
loop_
    _symmetry_equiv_pos_as_xyz
    x,y,z
loop_
    _atom_site_label
    _atom_site_type_symbol
    _atom_site_fract_x
    _atom_site_fract_y
    _atom_site_fract_z
    _atom_site_occupancy
    C0      C    0.24443   0.39661   0.56570   1.000
    C1      C    0.74444   0.39660   0.56572   1.000
    C2      C    0.25577   0.10342   0.06569   1.000
    C3      C    0.75578   0.10342   0.06569   1.000
    C4      C    0.25557   0.60337   0.43426   1.000
    C5      C    0.75558   0.60337   0.43420   1.000
    C6      C    0.24423   0.89655   0.93430   1.000
    C7      C    0.74424   0.89655   0.93430   1.000
    C8      C    0.25520   0.33293   0.90615   1.000
    C9      C    0.75522   0.33294   0.90615   1.000
    C10     C    0.24557   0.06275   0.81761   1.000
    C11     C    0.74559   0.06276   0.81761   1.000
    C12     C    0.24043   0.13819   0.71216   1.000
    C13     C    0.74044   0.13820   0.71216   1.000
    C14     C    0.41482   0.52481   0.61607   1.000
    C15     C    0.91483   0.52481   0.61607   1.000
    C16     C    0.08338   0.52692   0.61605   1.000
    C17     C    0.58339   0.52692   0.61605   1.000
    C18     C    0.07544   0.28251   0.51140   1.000
    C19     C    0.57544   0.28250   0.51142   1.000
    C20     C    0.40643   0.28159   0.51028   1.000
    C21     C    0.90644   0.28160   0.51028   1.000
    C22     C    0.24595   0.16744   0.40609   1.000
    C23     C    0.74595   0.16742   0.40609   1.000
    C24     C    0.25183   0.43748   0.31760   1.000
    C25     C    0.75184   0.43746   0.31761   1.000
    C26     C    0.25758   0.36208   0.21214   1.000
    C27     C    0.75759   0.36206   0.21214   1.000
    C28     C    0.08515   0.97538   0.11637   1.000
    C29     C    0.58516   0.97538   0.11636   1.000
    C30     C    0.41659   0.97332   0.11583   1.000
    C31     C    0.91660   0.97331   0.11584   1.000
    C32     C    0.42501   0.21759   0.01122   1.000
    C33     C    0.92501   0.21756   0.01122   1.000
    C34     C    0.09399   0.21828   0.01035   1.000
    C35     C    0.59401   0.21830   0.01035   1.000
    C36     C    0.24480   0.66704   0.09384   1.000
    C37     C    0.74480   0.66703   0.09384   1.000
    C38     C    0.25444   0.93722   0.18238   1.000
    C39     C    0.75443   0.93721   0.18238   1.000
    C40     C    0.25958   0.86178   0.28783   1.000
    C41     C    0.75958   0.86177   0.28783   1.000
    C42     C    0.08518   0.47516   0.38392   1.000
    C43     C    0.58519   0.47516   0.38392   1.000
    C44     C    0.41662   0.47306   0.38394   1.000
    C45     C    0.91663   0.47305   0.38394   1.000
    C46     C    0.42457   0.71747   0.48857   1.000
    C47     C    0.92458   0.71746   0.48858   1.000
    C48     C    0.09357   0.71838   0.48971   1.000
    C49     C    0.59359   0.71838   0.48971   1.000
    C50     C    0.25406   0.83255   0.59390   1.000
    C51     C    0.75407   0.83254   0.59390   1.000
    C52     C    0.24817   0.56251   0.68238   1.000
    C53     C    0.74818   0.56251   0.68238   1.000
    C54     C    0.24241   0.63791   0.78785   1.000
    C55     C    0.74243   0.63790   0.78785   1.000
    C56     C    0.41485   0.02460   0.88361   1.000
    C57     C    0.91486   0.02459   0.88363   1.000
    C58     C    0.08341   0.02665   0.88416   1.000
    C59     C    0.58342   0.02667   0.88415   1.000
    C60     C    0.07500   0.78238   0.98877   1.000
    C61     C    0.57501   0.78241   0.98877   1.000
    C62     C    0.40601   0.78169   0.98963   1.000
    C63     C    0.90601   0.78167   0.98964   1.000
    C64     C    0.24384   0.27726   0.74843   1.000
    C65     C    0.74384   0.27727   0.74843   1.000
    C66     C    0.24789   0.33044   0.80408   1.000
    C67     C    0.74790   0.33045   0.80408   1.000
    C68     C    0.25159   0.29029   0.86361   1.000
    C69     C    0.75161   0.29029   0.86361   1.000
    C70     C    0.25030   0.19318   0.86901   1.000
    C71     C    0.75033   0.19319   0.86902   1.000
    C72     C    0.24606   0.13823   0.81419   1.000
    C73     C    0.74608   0.13824   0.81420   1.000
    C74     C    0.24310   0.18034   0.75491   1.000
    C75     C    0.74311   0.18034   0.75491   1.000
    C76     C    0.24279   0.31916   0.68331   1.000
    C77     C    0.74279   0.31916   0.68331   1.000
    C78     C    0.25313   0.15141   0.93387   1.000
    C79     C    0.75315   0.15141   0.93388   1.000
    C80     C    0.45128   0.47154   0.59211   1.000
    C81     C    0.95129   0.47154   0.59211   1.000
    C82     C    0.04339   0.47250   0.59225   1.000
    C83     C    0.54339   0.47250   0.59225   1.000
    C84     C    0.03880   0.33687   0.53410   1.000
    C85     C    0.53881   0.33686   0.53411   1.000
    C86     C    0.44673   0.33628   0.53361   1.000
    C87     C    0.94674   0.33628   0.53361   1.000
    C88     C    0.25601   0.22310   0.24837   1.000
    C89     C    0.75601   0.22307   0.24837   1.000
    C90     C    0.25290   0.17003   0.30403   1.000
    C91     C    0.75291   0.17001   0.30403   1.000
    C92     C    0.24876   0.21009   0.36357   1.000
    C93     C    0.74877   0.21007   0.36357   1.000
    C94     C    0.24870   0.30713   0.36899   1.000
    C95     C    0.74870   0.30711   0.36899   1.000
    C96     C    0.25210   0.36203   0.31417   1.000
    C97     C    0.75211   0.36201   0.31418   1.000
    C98     C    0.25544   0.31995   0.25487   1.000
    C99     C    0.75545   0.31993   0.25487   1.000
    C100    C    0.25737   0.18103   0.18320   1.000
    C101    C    0.75738   0.18101   0.18329   1.000
    C102    C    0.24557   0.34876   0.43388   1.000
    C103    C    0.74556   0.34874   0.43388   1.000
    C104    C    0.04883   0.02860   0.09224   1.000
    C105    C    0.54883   0.02861   0.09223   1.000
    C106    C    0.45672   0.02770   0.09216   1.000
    C107    C    0.95673   0.02768   0.09217   1.000
    C108    C    0.46155   0.16323   0.03398   1.000
    C109    C    0.96155   0.16321   0.03399   1.000
    C110    C    0.05360   0.16369   0.03365   1.000
    C111    C    0.55362   0.16371   0.03364   1.000
    C112    C    0.25617   0.72271   0.25156   1.000
    C113    C    0.75618   0.72270   0.25156   1.000
    C114    C    0.25211   0.66953   0.19591   1.000
    C115    C    0.75212   0.66953   0.19591   1.000
    C116    C    0.24841   0.70969   0.13638   1.000
    C117    C    0.74841   0.70968   0.13638   1.000
    C118    C    0.24970   0.80680   0.13090   1.000
    C119    C    0.74969   0.80678   0.13097   1.000
    C120    C    0.25394   0.86174   0.18579   1.000
    C121    C    0.75394   0.86173   0.18579   1.000
    C122    C    0.25690   0.81964   0.24508   1.000
    C123    C    0.75691   0.81963   0.24508   1.000
    C124    C    0.25722   0.68082   0.31668   1.000
    C125    C    0.75723   0.68081   0.31668   1.000
    C126    C    0.24687   0.84857   0.06611   1.000
    C127    C    0.74687   0.84856   0.06611   1.000
    C128    C    0.04873   0.52843   0.40788   1.000
    C129    C    0.54873   0.52844   0.40788   1.000
    C130    C    0.45662   0.52748   0.40774   1.000
    C131    C    0.95663   0.52747   0.40774   1.000
    C132    C    0.46120   0.66311   0.46588   1.000
    C133    C    0.96121   0.66310   0.46589   1.000
    C134    C    0.05327   0.66369   0.46638   1.000
    C135    C    0.55328   0.66370   0.46638   1.000
    C136    C    0.24399   0.77689   0.75162   1.000
    C137    C    0.74400   0.77689   0.75162   1.000
    C138    C    0.24710   0.82996   0.69596   1.000
    C139    C    0.74711   0.82995   0.69596   1.000
    C140    C    0.25124   0.78990   0.63642   1.000
    C141    C    0.75125   0.78989   0.63642   1.000
    C142    C    0.25131   0.69286   0.63100   1.000
    C143    C    0.75131   0.69286   0.63100   1.000
    C144    C    0.24790   0.63795   0.68581   1.000
    C145    C    0.74791   0.63795   0.68580   1.000
    C146    C    0.24456   0.68004   0.74512   1.000
    C147    C    0.74457   0.68003   0.74512   1.000
    C148    C    0.24263   0.81895   0.81670   1.000
    C149    C    0.74264   0.81895   0.81670   1.000
    C150    C    0.25444   0.65123   0.56611   1.000
    C151    C    0.75445   0.65122   0.56611   1.000
    C152    C    0.45118   0.97137   0.90775   1.000
    C153    C    0.95118   0.97136   0.90776   1.000
    C154    C    0.04328   0.97228   0.90783   1.000
    C155    C    0.54329   0.97229   0.90782   1.000
    C156    C    0.03846   0.83674   0.96601   1.000
    C157    C    0.53847   0.83677   0.96600   1.000
    C158    C    0.44640   0.83628   0.96634   1.000
    C159    C    0.94640   0.83626   0.96635   1.000
    C160    C    0.24683   0.43314   0.80286   1.000
    C161    C    0.74684   0.43315   0.80286   1.000
    C162    C    0.40336   0.40405   0.56214   1.000
    C163    C    0.90337   0.40405   0.56214   1.000
    C164    C    0.08678   0.40561   0.56279   1.000
    C165    C    0.58679   0.40560   0.56279   1.000
    C166    C    0.25606   0.06758   0.30280   1.000
    C167    C    0.75608   0.06756   0.30282   1.000
    C168    C    0.09687   0.09595   0.06231   1.000
    C169    C    0.59688   0.09597   0.06230   1.000
    C170    C    0.41345   0.09458   0.06258   1.000
    C171    C    0.91345   0.09456   0.06259   1.000
    C172    C    0.25317   0.56683   0.19713   1.000
    C173    C    0.75318   0.56682   0.19713   1.000
    C174    C    0.09664   0.59592   0.43785   1.000
    C175    C    0.59665   0.59592   0.43785   1.000
    C176    C    0.41322   0.59438   0.43720   1.000
    C177    C    0.91323   0.59437   0.43720   1.000
    C178    C    0.24393   0.93241   0.69717   1.000
    C179    C    0.74394   0.93240   0.69717   1.000
    C180    C    0.40313   0.90402   0.93768   1.000
    C181    C    0.90314   0.90401   0.93769   1.000
    C182    C    0.08656   0.90539   0.93740   1.000
    C183    C    0.58657   0.90541   0.93740   1.000
    C184    C    0.25664   0.40717   0.67772   1.000
    C185    C    0.75663   0.40717   0.67772   1.000
    C186    C    0.22941   0.26558   0.63629   1.000
    C187    C    0.72942   0.26558   0.63600   1.000
    C188    C    0.24865   0.06331   0.94129   1.000
    C189    C    0.74868   0.06332   0.94129   1.000
    C190    C    0.25935   0.20700   0.98090   1.000
    C191    C    0.75936   0.20701   0.98090   1.000
    C192    C    0.31851   0.47660   0.81110   1.000
    C193    C    0.81852   0.47661   0.81115   1.000
    C194    C    0.17372   0.46768   0.79724   1.000
    C195    C    0.67373   0.46769   0.79724   1.000
    C196    C    0.24390   0.09296   0.17774   1.000
    C197    C    0.74390   0.09294   0.17774   1.000
    C198    C    0.27053   0.23453   0.13625   1.000
    C199    C    0.77054   0.23452   0.13625   1.000
    C200    C    0.24806   0.43683   0.44137   1.000
    C201    C    0.74807   0.43681   0.44137   1.000
    C202    C    0.24093   0.29307   0.48080   1.000
    C203    C    0.74094   0.29306   0.48088   1.000
    C204    C    0.18532   0.02250   0.31129   1.000
    C205    C    0.68536   0.02245   0.31100   1.000
    C206    C    0.33000   0.03496   0.29705   1.000
    C207    C    0.83004   0.03496   0.29700   1.000
    C208    C    0.24336   0.59281   0.32226   1.000
    C209    C    0.74339   0.59280   0.32220   1.000
    C210    C    0.27059   0.73440   0.36300   1.000
    C211    C    0.77061   0.73439   0.36300   1.000
    C212    C    0.25136   0.93666   0.05870   1.000
    C213    C    0.75134   0.93666   0.05870   1.000
    C214    C    0.24066   0.79297   0.01909   1.000
    C215    C    0.74066   0.79297   0.01909   1.000
    C216    C    0.18149   0.52337   0.18883   1.000
    C217    C    0.68150   0.52337   0.18880   1.000
    C218    C    0.32629   0.53230   0.20275   1.000
    C219    C    0.82629   0.53228   0.20275   1.000
    C220    C    0.25611   0.90703   0.82225   1.000
    C221    C    0.75611   0.90702   0.82225   1.000
    C222    C    0.22947   0.76545   0.86374   1.000
    C223    C    0.72948   0.76545   0.86374   1.000
    C224    C    0.25194   0.56315   0.55862   1.000
    C225    C    0.75196   0.56315   0.55862   1.000
    C226    C    0.25907   0.70691   0.51911   1.000
    C227    C    0.75908   0.70691   0.51911   1.000
    C228    C    0.31466   0.97750   0.68870   1.000
    C229    C    0.81468   0.97749   0.68870   1.000
    C230    C    0.16998   0.96501   0.70294   1.000
    C231    C    0.67000   0.96501   0.70294   1.000
    O232    O    0.07380   0.19099   0.02200   1.000
    O233    O    0.57381   0.19100   0.02200   1.000
    O234    O    0.44328   0.19041   0.02260   1.000
    O235    O    0.94328   0.19038   0.02261   1.000
    O236    O    0.24376   0.82077   0.04260   1.000
    O237    O    0.24244   0.84476   0.97670   1.000
    O238    O    0.74376   0.82076   0.04260   1.000
    O239    O    0.74245   0.84476   0.97670   1.000
    O240    O    0.50758   0.16347   0.03381   1.000
    O241    O    0.57525   0.12984   0.04797   1.000
    O242    O    0.00758   0.16345   0.03382   1.000
    O243    O    0.07524   0.12982   0.04798   1.000
    O244    O    0.43750   0.12890   0.04828   1.000
    O245    O    0.93750   0.12888   0.04829   1.000
    O246    O    0.75356   0.02004   0.06220   1.000
    O247    O    0.74910   0.89261   0.06241   1.000
    O248    O    0.25356   0.02004   0.06220   1.000
    O249    O    0.24912   0.89262   0.06241   1.000
    O250    O    0.67633   0.09969   0.06399   1.000
    O251    O    0.57286   0.06229   0.07727   1.000
    O252    O    0.17632   0.09969   0.06400   1.000
    O253    O    0.07285   0.06228   0.07727   1.000
    O254    O    0.33461   0.09900   0.06414   1.000
    O255    O    0.43508   0.06114   0.07737   1.000
    O256    O    0.83461   0.09899   0.06414   1.000
    O257    O    0.93509   0.06112   0.07738   1.000
    O258    O    0.76316   0.16897   0.10097   1.000
    O259    O    0.74984   0.09818   0.12172   1.000
    O260    O    0.75757   0.15521   0.02330   1.000
    O261    O    0.26315   0.16898   0.10097   1.000
    O262    O    0.24983   0.09819   0.12172   1.000
    O263    O    0.25756   0.15521   0.02330   1.000
    O264    O    0.74828   0.82767   0.09854   1.000
    O265    O    0.24829   0.82768   0.09851   1.000
    O266    O    0.50278   0.02816   0.09220   1.000
    O267    O    0.43665   0.00051   0.10400   1.000
    O268    O    0.00278   0.02814   0.09220   1.000
    O269    O    0.93666   0.00049   0.10401   1.000
    O270    O    0.56700   0.00200   0.10429   1.000
    O271    O    0.06699   0.00199   0.10430   1.000
    O272    O    0.74661   0.68835   0.11511   1.000
    O273    O    0.24661   0.68837   0.11511   1.000
    O274    O    0.24905   0.75824   0.13364   1.000
    O275    O    0.25182   0.83427   0.15835   1.000
    O276    O    0.74905   0.75823   0.13368   1.000
    O277    O    0.75182   0.83426   0.15838   1.000
    O278    O    0.26395   0.20778   0.15973   1.000
    O279    O    0.76396   0.20777   0.15977   1.000
    O280    O    0.75027   0.68960   0.16614   1.000
    O281    O    0.25026   0.68961   0.16614   1.000
    O282    O    0.25063   0.13699   0.18047   1.000
    O283    O    0.75064   0.13698   0.18052   1.000
    O284    O    0.75418   0.89947   0.18408   1.000
    O285    O    0.25419   0.89948   0.18408   1.000
    O286    O    0.25669   0.20206   0.21579   1.000
    O287    O    0.75670   0.20204   0.21583   1.000
    O288    O    0.75542   0.84068   0.21544   1.000
    O289    O    0.25542   0.84069   0.21544   1.000
    O290    O    0.71734   0.54510   0.19296   1.000
    O291    O    0.21733   0.54510   0.19298   1.000
    O292    O    0.25264   0.61818   0.19652   1.000
    O293    O    0.25414   0.69612   0.22374   1.000
    O294    O    0.75265   0.61817   0.19652   1.000
    O295    O    0.75415   0.69611   0.22374   1.000
    O296    O    0.78974   0.54955   0.19994   1.000
    O297    O    0.28973   0.54957   0.19994   1.000
    O298    O    0.75652   0.34099   0.23350   1.000
    O299    O    0.25651   0.34102   0.23350   1.000
    O300    O    0.75654   0.77117   0.24832   1.000
    O301    O    0.75824   0.84070   0.26645   1.000
    O302    O    0.25653   0.77118   0.24832   1.000
    O303    O    0.25824   0.84071   0.26645   1.000
    O304    O    0.75573   0.27150   0.25162   1.000
    O305    O    0.75446   0.19654   0.27620   1.000
    O306    O    0.25573   0.27152   0.25162   1.000
    O307    O    0.25446   0.19657   0.27620   1.000
    O308    O    0.75670   0.70176   0.28412   1.000
    O309    O    0.25669   0.70176   0.28412   1.000
    O310    O    0.75378   0.34097   0.28453   1.000
    O311    O    0.25377   0.34099   0.28452   1.000
    O312    O    0.79306   0.05126   0.29991   1.000
    O313    O    0.29303   0.05127   0.29993   1.000
    O314    O    0.25448   0.11881   0.30341   1.000
    O315    O    0.22069   0.04504   0.30705   1.000
    O316    O    0.75450   0.11878   0.30343   1.000
    O317    O    0.72072   0.04501   0.30691   1.000
    O318    O    0.25083   0.19006   0.33380   1.000
    O319    O    0.75084   0.19004   0.33380   1.000
    O320    O    0.25197   0.39976   0.31589   1.000
    O321    O    0.25040   0.33458   0.34158   1.000
    O322    O    0.75198   0.39973   0.31590   1.000
    O323    O    0.75041   0.33456   0.34158   1.000
    O324    O    0.75031   0.63681   0.31944   1.000
    O325    O    0.76392   0.70760   0.33984   1.000
    O326    O    0.25029   0.63681   0.31947   1.000
    O327    O    0.26391   0.70761   0.33984   1.000
    O328    O    0.74949   0.59808   0.37820   1.000
    O329    O    0.24947   0.59809   0.37826   1.000
    O330    O    0.76309   0.66888   0.39860   1.000
    O331    O    0.26308   0.66889   0.39863   1.000
    O332    O    0.24873   0.25861   0.36628   1.000
    O333    O    0.24735   0.18877   0.38483   1.000
    O334    O    0.74873   0.25859   0.36628   1.000
    O335    O    0.74736   0.18874   0.38483   1.000
    O336    O    0.74713   0.32792   0.40143   1.000
    O337    O    0.24714   0.32794   0.40143   1.000
    O338    O    0.06695   0.50180   0.39590   1.000
    O339    O    0.56696   0.50180   0.39590   1.000
    O340    O    0.43662   0.50027   0.39584   1.000
    O341    O    0.93663   0.50026   0.39584   1.000
    O342    O    0.50268   0.52796   0.40781   1.000
    O343    O    0.43492   0.56093   0.42247   1.000
    O344    O    0.00268   0.52795   0.40781   1.000
    O345    O    0.93493   0.56092   0.42247   1.000
    O346    O    0.07268   0.56218   0.42287   1.000
    O347    O    0.57269   0.56218   0.42287   1.000
    O348    O    0.24681   0.39279   0.43762   1.000
    O349    O    0.24325   0.32091   0.45734   1.000
    O350    O    0.74682   0.39278   0.43762   1.000
    O351    O    0.74325   0.32090   0.45738   1.000
    O352    O    0.83441   0.59887   0.43570   1.000
    O353    O    0.67612   0.59964   0.43602   1.000
    O354    O    0.75182   0.52009   0.43778   1.000
    O355    O    0.75733   0.65514   0.47665   1.000
    O356    O    0.33440   0.59888   0.43573   1.000
    O357    O    0.17611   0.59965   0.43606   1.000
    O358    O    0.25181   0.52010   0.43782   1.000
    O359    O    0.25732   0.65514   0.47668   1.000
    O360    O    0.93722   0.62874   0.45155   1.000
    O361    O    0.43721   0.62874   0.45154   1.000
    O362    O    0.07495   0.62980   0.45212   1.000
    O363    O    0.57497   0.62981   0.45212   1.000
    O364    O    0.50724   0.66341   0.46613   1.000
    O365    O    0.44289   0.69029   0.47723   1.000
    O366    O    0.00724   0.66340   0.46614   1.000
    O367    O    0.94289   0.69028   0.47724   1.000
    O368    O    0.07342   0.69103   0.47805   1.000
    O369    O    0.57343   0.69104   0.47805   1.000
    O370    O    0.24268   0.34484   0.52325   1.000
    O371    O    0.74269   0.34483   0.52330   1.000
    O372    O    0.42658   0.30894   0.52194   1.000
    O373    O    0.92659   0.30894   0.52194   1.000
    O374    O    0.05712   0.30969   0.52275   1.000
    O375    O    0.55713   0.30968   0.52277   1.000
    O376    O    0.75676   0.67907   0.54261   1.000
    O377    O    0.25676   0.67907   0.54261   1.000
    O378    O    0.49277   0.33657   0.53386   1.000
    O379    O    0.42505   0.37017   0.54788   1.000
    O380    O    0.99277   0.33657   0.53386   1.000
    O381    O    0.92506   0.37017   0.54788   1.000
    O382    O    0.06279   0.37124   0.54844   1.000
    O383    O    0.56280   0.37123   0.54845   1.000
    O384    O    0.24819   0.47988   0.56216   1.000
    O385    O    0.25319   0.60719   0.56237   1.000
    O386    O    0.74820   0.47988   0.56217   1.000
    O387    O    0.75320   0.60719   0.56237   1.000
    O388    O    0.82390   0.40033   0.56393   1.000
    O389    O    0.92733   0.43780   0.57712   1.000
    O390    O    0.32390   0.40033   0.56392   1.000
    O391    O    0.42732   0.43780   0.57712   1.000
    O392    O    0.66561   0.40110   0.56426   1.000
    O393    O    0.56509   0.43905   0.57752   1.000
    O394    O    0.16561   0.40111   0.56425   1.000
    O395    O    0.06508   0.43905   0.57752   1.000
    O396    O    0.23692   0.33109   0.60100   1.000
    O397    O    0.25054   0.40189   0.62171   1.000
    O398    O    0.73693   0.33109   0.60086   1.000
    O399    O    0.75054   0.40189   0.62172   1.000
    O400    O    0.75288   0.67204   0.59856   1.000
    O401    O    0.25288   0.67204   0.59856   1.000
    O402    O    0.49734   0.47202   0.59218   1.000
    O403    O    0.43305   0.49818   0.60409   1.000
    O404    O    0.99734   0.47202   0.59218   1.000
    O405    O    0.93306   0.49818   0.60409   1.000
    O406    O    0.06338   0.49971   0.60415   1.000
    O407    O    0.56339   0.49971   0.60415   1.000
    O408    O    0.75266   0.81122   0.61516   1.000
    O409    O    0.25265   0.81122   0.61516   1.000
    O410    O    0.25128   0.74138   0.63371   1.000
    O411    O    0.24960   0.66541   0.65841   1.000
    O412    O    0.75128   0.74137   0.63371   1.000
    O413    O    0.74961   0.66540   0.65840   1.000
    O414    O    0.73610   0.29237   0.65965   1.000
    O415    O    0.23610   0.29237   0.65980   1.000
    O416    O    0.24917   0.80993   0.66619   1.000
    O417    O    0.74918   0.80992   0.66619   1.000
    O418    O    0.24972   0.36316   0.68051   1.000
    O419    O    0.74971   0.36316   0.68051   1.000
    O420    O    0.24803   0.60023   0.68410   1.000
    O421    O    0.74805   0.60023   0.68409   1.000
    O422    O    0.24331   0.29821   0.71587   1.000
    O423    O    0.74331   0.29821   0.71587   1.000
    O424    O    0.74624   0.65899   0.71546   1.000
    O425    O    0.24623   0.65899   0.71547   1.000
    O426    O    0.77931   0.95495   0.69293   1.000
    O427    O    0.27930   0.95495   0.69293   1.000
    O428    O    0.74553   0.88117   0.69657   1.000
    O429    O    0.74556   0.80342   0.72379   1.000
    O430    O    0.24552   0.88118   0.69657   1.000
    O431    O    0.24555   0.80342   0.72379   1.000
    O432    O    0.70697   0.94871   0.70005   1.000
    O433    O    0.20696   0.94871   0.70005   1.000
    O434    O    0.24177   0.15927   0.73354   1.000
    O435    O    0.74177   0.15927   0.73354   1.000
    O436    O    0.24428   0.72846   0.74837   1.000
    O437    O    0.24349   0.65897   0.76649   1.000
    O438    O    0.74429   0.72846   0.74837   1.000
    O439    O    0.74350   0.65897   0.76649   1.000
    O440    O    0.24347   0.22880   0.75167   1.000
    O441    O    0.24587   0.30385   0.77626   1.000
    O442    O    0.74348   0.22881   0.75167   1.000
    O443    O    0.74587   0.30386   0.77626   1.000
    O444    O    0.24331   0.79792   0.78416   1.000
    O445    O    0.74332   0.79792   0.78416   1.000
    O446    O    0.24458   0.15929   0.78455   1.000
    O447    O    0.74460   0.15929   0.78456   1.000
    O448    O    0.71028   0.45042   0.80005   1.000
    O449    O    0.21027   0.45041   0.80005   1.000
    O450    O    0.74737   0.38180   0.80347   1.000
    O451    O    0.78268   0.45488   0.80701   1.000
    O452    O    0.24736   0.38179   0.80347   1.000
    O453    O    0.28267   0.45487   0.80698   1.000
    O454    O    0.24974   0.31036   0.83385   1.000
    O455    O    0.74975   0.31037   0.83385   1.000
    O456    O    0.24581   0.10049   0.81590   1.000
    O457    O    0.24818   0.16571   0.84160   1.000
    O458    O    0.74583   0.10050   0.81590   1.000
    O459    O    0.74820   0.16571   0.84161   1.000
    O460    O    0.74938   0.86299   0.81947   1.000
    O461    O    0.73606   0.79220   0.84022   1.000
    O462    O    0.24937   0.86299   0.81947   1.000
    O463    O    0.23605   0.79220   0.84022   1.000
    O464    O    0.25017   0.90179   0.87828   1.000
    O465    O    0.75018   0.90179   0.87828   1.000
    O466    O    0.75097   0.24174   0.86632   1.000
    O467    O    0.75341   0.31162   0.88488   1.000
    O468    O    0.25095   0.24173   0.86631   1.000
    O469    O    0.25340   0.31161   0.88488   1.000
    O470    O    0.73686   0.83100   0.89902   1.000
    O471    O    0.23685   0.83100   0.89902   1.000
    O472    O    0.25172   0.17229   0.90144   1.000
    O473    O    0.75174   0.17230   0.90145   1.000
    O474    O    0.43301   0.99799   0.89568   1.000
    O475    O    0.93302   0.99798   0.89570   1.000
    O476    O    0.56336   0.99948   0.89599   1.000
    O477    O    0.06335   0.99946   0.89600   1.000
    O478    O    0.49723   0.97183   0.90779   1.000
    O479    O    0.42716   0.93770   0.92272   1.000
    O480    O    0.99723   0.97182   0.90780   1.000
    O481    O    0.92716   0.93768   0.92273   1.000
    O482    O    0.56493   0.93885   0.92261   1.000
    O483    O    0.06492   0.93884   0.92261   1.000
    O484    O    0.25089   0.10736   0.93758   1.000
    O485    O    0.25624   0.17920   0.95739   1.000
    O486    O    0.75092   0.10736   0.93759   1.000
    O487    O    0.75626   0.17921   0.95739   1.000
    O488    O    0.66540   0.90098   0.93585   1.000
    O489    O    0.82369   0.90028   0.93600   1.000
    O490    O    0.74646   0.97994   0.93780   1.000
    O491    O    0.16539   0.90097   0.93585   1.000
    O492    O    0.32368   0.90029   0.93599   1.000
    O493    O    0.24644   0.97993   0.93780   1.000
    O494    O    0.56252   0.87109   0.95170   1.000
    O495    O    0.06251   0.87107   0.95170   1.000
    O496    O    0.42477   0.87015   0.95201   1.000
    O497    O    0.92477   0.87013   0.95202   1.000
    O498    O    0.49243   0.83652   0.96617   1.000
    O499    O    0.55674   0.80959   0.97738   1.000
    O500    O    0.99243   0.83650   0.96618   1.000
    O501    O    0.05673   0.80956   0.97739   1.000
    O502    O    0.42620   0.80899   0.97798   1.000
    O503    O    0.92620   0.80897   0.97800   1.000
loop_
    _geom_bond_atom_site_label_1
    _geom_bond_atom_site_label_2
    _geom_bond_distance
    _geom_bond_site_symmetry_2
    _ccdc_geom_bond_type
    C34    O232      0.54551      .   S
    C110   O232      0.54551      .   S
    C35    O233      0.54548      .   S
    C111   O233      0.54548      .   S
    C32    O234      0.54553      .   S
    C108   O234      0.54553      .   S
    C33    O235      0.54556      .   S
    C109   O235      0.54556      .   S
    C214   O236      0.63827      .   S
    C126   O236      0.63827      .   S
    C214   O237      1.16557  1_554   S
    C6     O237      1.16557      .   S
    C215   O238      0.63825      .   S
    C127   O238      0.63825      .   S
    C215   O239      1.16560  1_554   S
    C7     O239      1.16560      .   S
    C111   O240      0.69643      .   S
    C108   O240      0.69643      .   S
    C111   O241      0.67209      .   S
    C169   O241      0.67209      .   S
    C110   O242      0.69630      .   S
    C109   O242      0.69630  1_655   S
    C110   O243      0.67208      .   S
    C168   O243      0.67208      .   S
    C108   O244      0.67216      .   S
    C170   O244      0.67216      .   S
    C109   O245      0.67214      .   S
    C171   O245      0.67214      .   S
    C213   O246      1.20232  1_565   S
    C3     O246      1.20232      .   S
    C213   O247      0.63874      .   S
    C127   O247      0.63874      .   S
    C212   O248      1.20232  1_565   S
    C2     O248      1.20232      .   S
    C212   O249      0.63872      .   S
    C126   O249      0.63872      .   S
    C169   O250      1.20138      .   S
    C3     O250      1.20138      .   S
    C169   O251      0.67186      .   S
    C105   O251      0.67186      .   S
    C168   O252      1.20139      .   S
    C2     O252      1.20139      .   S
    C168   O253      0.67184      .   S
    C104   O253      0.67184      .   S
    C170   O254      1.19802      .   S
    C2     O254      1.19802      .   S
    C170   O255      0.67198      .   S
    C106   O255      0.67198      .   S
    C171   O256      1.19801      .   S
    C3     O256      1.19801      .   S
    C171   O257      0.67196      .   S
    C107   O257      0.67196      .   S
    C3     O258      1.20392      .   S
    C199   O258      1.20392      .   S
    C3     O259      1.18937      .   S
    C197   O259      1.18937      .   S
    C3     O260      1.16561      .   S
    C191   O260      1.16561  1_556   S
    C2     O261      1.20395      .   S
    C198   O261      1.20395      .   S
    C2     O262      1.18936      .   S
    C196   O262      1.18936      .   S
    C2     O263      1.16557      .   S
    C190   O263      1.16557  1_556   S
    C127   O264      0.74919      .   S
    C119   O264      0.74919      .   S
    C126   O265      0.74851      .   S
    C118   O265      0.74851      .   S
    C106   O266      0.69661      .   S
    C105   O266      0.69661      .   S
    C106   O267      0.54525      .   S
    C30    O267      0.54525  1_565   S
    C107   O268      0.69649  1_655   S
    C104   O268      0.69649      .   S
    C107   O269      0.54523      .   S
    C31    O269      0.54523  1_565   S
    C105   O270      0.54524      .   S
    C29    O270      0.54524  1_565   S
    C104   O271      0.54521      .   S
    C28    O271      0.54521  1_565   S
    C37    O272      0.54420      .   S
    C117   O272      0.54420      .   S
    C36    O273      0.54420      .   S
    C116   O273      0.54420      .   S
    C118   O274      0.70150      .   S
    C116   O274      0.70150      .   S
    C118   O275      0.70181      .   S
    C120   O275      0.70181      .   S
    C119   O276      0.70145      .   S
    C117   O276      0.70145      .   S
    C119   O277      0.70120      .   S
    C121   O277      0.70120      .   S
    C198   O278      0.63333      .   S
    C100   O278      0.63333      .   S
    C199   O279      0.63410      .   S
    C101   O279      0.63410      .   S
    C117   O280      0.69343      .   S
    C115   O280      0.69343      .   S
    C116   O281      0.69343      .   S
    C114   O281      0.69343      .   S
    C196   O282      0.64042      .   S
    C100   O282      0.64042      .   S
    C197   O283      0.64050      .   S
    C101   O283      0.64050      .   S
    C39    O284      0.54474      .   S
    C121   O284      0.54474      .   S
    C38    O285      0.54474      .   S
    C120   O285      0.54474      .   S
    C100   O286      0.75236      .   S
    C88    O286      0.75236      .   S
    C101   O287      0.75147      .   S
    C89    O287      0.75147      .   S
    C121   O288      0.69685      .   S
    C123   O288      0.69685      .   S
    C120   O289      0.69685      .   S
    C122   O289      0.69685      .   S
    C217   O290      0.61971      .   S
    C173   O290      0.61971      .   S
    C216   O291      0.61966      .   S
    C172   O291      0.61966      .   S
    C114   O292      0.74030      .   S
    C172   O292      0.74030      .   S
    C114   O293      0.70142      .   S
    C112   O293      0.70142      .   S
    C115   O294      0.74030      .   S
    C173   O294      0.74030      .   S
    C115   O295      0.70142      .   S
    C113   O295      0.70142      .   S
    C173   O296      0.61976      .   S
    C219   O296      0.61976      .   S
    C172   O297      0.61976      .   S
    C218   O297      0.61976      .   S
    C27    O298      0.54388      .   S
    C99    O298      0.54388      .   S
    C26    O299      0.54388      .   S
    C98    O299      0.54388      .   S
    C123   O300      0.70130      .   S
    C113   O300      0.70130      .   S
    C123   O301      0.54390      .   S
    C41    O301      0.54390      .   S
    C122   O302      0.70130      .   S
    C112   O302      0.70130      .   S
    C122   O303      0.54391      .   S
    C40    O303      0.54391      .   S
    C89    O304      0.70120      .   S
    C99    O304      0.70120      .   S
    C89    O305      0.70128      .   S
    C91    O305      0.70128      .   S
    C88    O306      0.70120      .   S
    C98    O306      0.70120      .   S
    C88    O307      0.70128      .   S
    C90    O307      0.70128      .   S
    C113   O308      0.75154      .   S
    C125   O308      0.75154      .   S
    C112   O309      0.75155      .   S
    C124   O309      0.75155      .   S
    C99    O310      0.69691      .   S
    C97    O310      0.69691      .   S
    C98    O311      0.69681      .   S
    C96    O311      0.69681      .   S
    C207   O312      0.61979      .   S
    C167   O312      0.61979      .   S
    C206   O313      0.61972      .   S
    C166   O313      0.61972      .   S
    C166   O314      0.73956      .   S
    C90    O314      0.73956      .   S
    C166   O315      0.61958      .   S
    C204   O315      0.61958      .   S
    C167   O316      0.73957      .   S
    C91    O316      0.73957      .   S
    C167   O317      0.61911      .   S
    C205   O317      0.61911      .   S
    C90    O318      0.69324      .   S
    C92    O318      0.69324      .   S
    C91    O319      0.69325      .   S
    C93    O319      0.69325      .   S
    C96    O320      0.54471      .   S
    C24    O320      0.54471      .   S
    C96    O321      0.70126      .   S
    C94    O321      0.70126      .   S
    C97    O322      0.54471      .   S
    C25    O322      0.54471      .   S
    C97    O323      0.70118      .   S
    C95    O323      0.70118      .   S
    C125   O324      0.64042      .   S
    C209   O324      0.64042      .   S
    C125   O325      0.62835      .   S
    C211   O325      0.62835      .   S
    C124   O326      0.64047      .   S
    C208   O326      0.64047      .   S
    C124   O327      0.62834      .   S
    C210   O327      0.62834      .   S
    C209   O328      1.18890      .   S
    C5     O328      1.18890      .   S
    C208   O329      1.18891      .   S
    C4     O329      1.18891      .   S
    C211   O330      1.20840      .   S
    C5     O330      1.20840      .   S
    C210   O331      1.20878      .   S
    C4     O331      1.20878      .   S
    C92    O332      0.70128      .   S
    C94    O332      0.70128      .   S
    C92    O333      0.54418      .   S
    C22    O333      0.54418      .   S
    C93    O334      0.70128      .   S
    C95    O334      0.70128      .   S
    C93    O335      0.54419      .   S
    C23    O335      0.54419      .   S
    C95    O336      0.74897      .   S
    C103   O336      0.74897      .   S
    C94    O337      0.74895      .   S
    C102   O337      0.74895      .   S
    C42    O338      0.54514      .   S
    C128   O338      0.54514      .   S
    C43    O339      0.54515      .   S
    C129   O339      0.54515      .   S
    C44    O340      0.54523      .   S
    C130   O340      0.54523      .   S
    C45    O341      0.54523      .   S
    C131   O341      0.54523      .   S
    C130   O342      0.69662      .   S
    C129   O342      0.69662      .   S
    C130   O343      0.67192      .   S
    C176   O343      0.67192      .   S
    C131   O344      0.69649  1_655   S
    C128   O344      0.69649      .   S
    C131   O345      0.67192      .   S
    C177   O345      0.67192      .   S
    C128   O346      0.67183      .   S
    C174   O346      0.67183      .   S
    C129   O347      0.67184      .   S
    C175   O347      0.67184      .   S
    C102   O348      0.63867      .   S
    C200   O348      0.63867      .   S
    C102   O349      0.63776      .   S
    C202   O349      0.63776      .   S
    C103   O350      0.63867      .   S
    C201   O350      0.63867      .   S
    C103   O351      0.63839      .   S
    C203   O351      0.63839      .   S
    C5     O352      1.19784      .   S
    C177   O352      1.19784      .   S
    C5     O353      1.20173      .   S
    C175   O353      1.20173      .   S
    C5     O354      1.20082      .   S
    C201   O354      1.20082      .   S
    C5     O355      1.16582      .   S
    C227   O355      1.16582      .   S
    C4     O356      1.19784      .   S
    C176   O356      1.19784      .   S
    C4     O357      1.20171      .   S
    C174   O357      1.20171      .   S
    C4     O358      1.20073      .   S
    C200   O358      1.20073      .   S
    C4     O359      1.16531      .   S
    C226   O359      1.16531      .   S
    C177   O360      0.67220      .   S
    C133   O360      0.67220      .   S
    C176   O361      0.67216      .   S
    C132   O361      0.67216      .   S
    C174   O362      0.67206      .   S
    C134   O362      0.67206      .   S
    C175   O363      0.67207      .   S
    C135   O363      0.67207      .   S
    C132   O364      0.69643      .   S
    C135   O364      0.69643      .   S
    C132   O365      0.54555      .   S
    C46    O365      0.54555      .   S
    C133   O366      0.69629  1_655   S
    C134   O366      0.69629      .   S
    C133   O367      0.54554      .   S
    C47    O367      0.54554      .   S
    C134   O368      0.54551      .   S
    C48    O368      0.54551      .   S
    C135   O369      0.54551      .   S
    C49    O369      0.54551      .   S
    C202   O370      1.16572      .   S
    C0     O370      1.16572      .   S
    C203   O371      1.16525      .   S
    C1     O371      1.16525      .   S
    C20    O372      0.54551      .   S
    C86    O372      0.54551      .   S
    C21    O373      0.54550      .   S
    C87    O373      0.54550      .   S
    C18    O374      0.54559      .   S
    C84    O374      0.54559      .   S
    C19    O375      0.54556      .   S
    C85    O375      0.54556      .   S
    C227   O376      0.63840      .   S
    C151   O376      0.63840      .   S
    C226   O377      0.63839      .   S
    C150   O377      0.63839      .   S
    C86    O378      0.69643      .   S
    C85    O378      0.69643      .   S
    C86    O379      0.67207      .   S
    C162   O379      0.67207      .   S
    C87    O380      0.69630      .   S
    C84    O380      0.69630  1_455   S
    C87    O381      0.67206      .   S
    C163   O381      0.67206      .   S
    C84    O382      0.67220      .   S
    C164   O382      0.67220      .   S
    C85    O383      0.67216      .   S
    C165   O383      0.67216      .   S
    C224   O384      1.20073      .   S
    C0     O384      1.20073      .   S
    C224   O385      0.63867      .   S
    C150   O385      0.63867      .   S
    C225   O386      1.20075      .   S
    C1     O386      1.20075      .   S
    C225   O387      0.63867      .   S
    C151   O387      0.63867      .   S
    C163   O388      1.20172      .   S
    C1     O388      1.20172      .   S
    C163   O389      0.67183      .   S
    C81    O389      0.67183      .   S
    C162   O390      1.20170      .   S
    C0     O390      1.20170      .   S
    C162   O391      0.67184      .   S
    C80    O391      0.67184      .   S
    C165   O392      1.19783      .   S
    C1     O392      1.19783      .   S
    C165   O393      0.67192      .   S
    C83    O393      0.67192      .   S
    C164   O394      1.19783      .   S
    C0     O394      1.19783      .   S
    C164   O395      0.67191      .   S
    C82    O395      0.67191      .   S
    C0     O396      1.20440      .   S
    C186   O396      1.20440      .   S
    C0     O397      1.18911      .   S
    C184   O397      1.18911      .   S
    C1     O398      1.20236      .   S
    C187   O398      1.20236      .   S
    C1     O399      1.18890      .   S
    C185   O399      1.18890      .   S
    C151   O400      0.74895      .   S
    C143   O400      0.74895      .   S
    C150   O401      0.74896      .   S
    C142   O401      0.74896      .   S
    C80    O402      0.69662      .   S
    C83    O402      0.69662      .   S
    C80    O403      0.54514      .   S
    C14    O403      0.54514      .   S
    C81    O404      0.69649      .   S
    C82    O404      0.69649  1_455   S
    C81    O405      0.54514      .   S
    C15    O405      0.54514      .   S
    C82    O406      0.54523      .   S
    C16    O406      0.54523      .   S
    C83    O407      0.54523      .   S
    C17    O407      0.54523      .   S
    C51    O408      0.54418      .   S
    C141   O408      0.54418      .   S
    C50    O409      0.54419      .   S
    C140   O409      0.54419      .   S
    C142   O410      0.70128      .   S
    C140   O410      0.70128      .   S
    C142   O411      0.70118      .   S
    C144   O411      0.70118      .   S
    C143   O412      0.70128      .   S
    C141   O412      0.70128      .   S
    C143   O413      0.70109      .   S
    C145   O413      0.70109      .   S
    C187   O414      0.63652      .   S
    C77    O414      0.63652      .   S
    C186   O415      0.63412      .   S
    C76    O415      0.63412      .   S
    C140   O416      0.69325      .   S
    C138   O416      0.69325      .   S
    C141   O417      0.69324      .   S
    C139   O417      0.69324      .   S
    C184   O418      0.64048      .   S
    C76    O418      0.64048      .   S
    C185   O419      0.64049      .   S
    C77    O419      0.64049      .   S
    C52    O420      0.54471      .   S
    C144   O420      0.54471      .   S
    C53    O421      0.54470      .   S
    C145   O421      0.54470      .   S
    C76    O422      0.75154      .   S
    C64    O422      0.75154      .   S
    C77    O423      0.75154      .   S
    C65    O423      0.75154      .   S
    C145   O424      0.69701      .   S
    C147   O424      0.69701      .   S
    C144   O425      0.69691      .   S
    C146   O425      0.69691      .   S
    C229   O426      0.61955      .   S
    C179   O426      0.61955      .   S
    C228   O427      0.61954      .   S
    C178   O427      0.61954      .   S
    C139   O428      0.73956      .   S
    C179   O428      0.73956      .   S
    C139   O429      0.70128      .   S
    C137   O429      0.70128      .   S
    C138   O430      0.73956      .   S
    C178   O430      0.73956      .   S
    C138   O431      0.70128      .   S
    C136   O431      0.70128      .   S
    C179   O432      0.61974      .   S
    C231   O432      0.61974      .   S
    C178   O433      0.61974      .   S
    C230   O433      0.61974      .   S
    C12    O434      0.54390      .   S
    C74    O434      0.54390      .   S
    C13    O435      0.54391      .   S
    C75    O435      0.54391      .   S
    C146   O436      0.70120      .   S
    C136   O436      0.70120      .   S
    C146   O437      0.54388      .   S
    C54    O437      0.54388      .   S
    C147   O438      0.70120      .   S
    C137   O438      0.70120      .   S
    C147   O439      0.54388      .   S
    C55    O439      0.54388      .   S
    C64    O440      0.70131      .   S
    C74    O440      0.70131      .   S
    C64    O441      0.70141      .   S
    C66    O441      0.70141      .   S
    C65    O442      0.70131      .   S
    C75    O442      0.70131      .   S
    C65    O443      0.70142      .   S
    C67    O443      0.70142      .   S
    C136   O444      0.75148      .   S
    C148   O444      0.75148      .   S
    C137   O445      0.75148      .   S
    C149   O445      0.75148      .   S
    C74    O446      0.69676      .   S
    C72    O446      0.69676      .   S
    C75    O447      0.69685      .   S
    C73    O447      0.69685      .   S
    C195   O448      0.61976      .   S
    C161   O448      0.61976      .   S
    C194   O449      0.61975      .   S
    C160   O449      0.61975      .   S
    C161   O450      0.74030      .   S
    C67    O450      0.74030      .   S
    C161   O451      0.61965      .   S
    C193   O451      0.61965      .   S
    C160   O452      0.74030      .   S
    C66    O452      0.74030      .   S
    C160   O453      0.61957      .   S
    C192   O453      0.61957      .   S
    C66    O454      0.69344      .   S
    C68    O454      0.69344      .   S
    C67    O455      0.69343      .   S
    C69    O455      0.69343      .   S
    C72    O456      0.54474      .   S
    C10    O456      0.54474      .   S
    C72    O457      0.70119      .   S
    C70    O457      0.70119      .   S
    C73    O458      0.54474      .   S
    C11    O458      0.54474      .   S
    C73    O459      0.70120      .   S
    C71    O459      0.70120      .   S
    C149   O460      0.64050      .   S
    C221   O460      0.64050      .   S
    C149   O461      0.63409      .   S
    C223   O461      0.63409      .   S
    C148   O462      0.64051      .   S
    C220   O462      0.64051      .   S
    C148   O463      0.63409      .   S
    C222   O463      0.63409      .   S
    C220   O464      1.18937      .   S
    C6     O464      1.18937      .   S
    C221   O465      1.18936      .   S
    C7     O465      1.18936      .   S
    C69    O466      0.70144      .   S
    C71    O466      0.70144      .   S
    C69    O467      0.54421      .   S
    C9     O467      0.54421      .   S
    C68    O468      0.70143      .   S
    C70    O468      0.70143      .   S
    C68    O469      0.54420      .   S
    C8     O469      0.54420      .   S
    C223   O470      1.20394      .   S
    C7     O470      1.20394      .   S
    C222   O471      1.20393      .   S
    C6     O471      1.20393      .   S
    C70    O472      0.74918      .   S
    C78    O472      0.74918      .   S
    C71    O473      0.74919      .   S
    C79    O473      0.74919      .   S
    C56    O474      0.54526  1_545   S
    C152   O474      0.54526      .   S
    C57    O475      0.54524  1_545   S
    C153   O475      0.54524      .   S
    C59    O476      0.54523  1_545   S
    C155   O476      0.54523      .   S
    C58    O477      0.54525  1_545   S
    C154   O477      0.54525      .   S
    C152   O478      0.69662      .   S
    C155   O478      0.69662      .   S
    C152   O479      0.67184      .   S
    C180   O479      0.67184      .   S
    C153   O480      0.69649      .   S
    C154   O480      0.69649  1_455   S
    C153   O481      0.67186      .   S
    C181   O481      0.67186      .   S
    C155   O482      0.67196      .   S
    C183   O482      0.67196      .   S
    C154   O483      0.67193      .   S
    C182   O483      0.67193      .   S
    C78    O484      0.63874      .   S
    C188   O484      0.63874      .   S
    C78    O485      0.63835      .   S
    C190   O485      0.63835      .   S
    C79    O486      0.63873      .   S
    C189   O486      0.63873      .   S
    C79    O487      0.63826      .   S
    C191   O487      0.63826      .   S
    C7     O488      1.19802      .   S
    C183   O488      1.19802      .   S
    C7     O489      1.20138      .   S
    C181   O489      1.20138      .   S
    C7     O490      1.20233      .   S
    C189   O490      1.20233  1_545   S
    C6     O491      1.19802      .   S
    C182   O491      1.19802      .   S
    C6     O492      1.20139      .   S
    C180   O492      1.20139      .   S
    C6     O493      1.20230      .   S
    C188   O493      1.20230  1_545   S
    C183   O494      0.67215      .   S
    C157   O494      0.67215      .   S
    C182   O495      0.67222      .   S
    C156   O495      0.67222      .   S
    C180   O496      0.67208      .   S
    C158   O496      0.67208      .   S
    C181   O497      0.67210      .   S
    C159   O497      0.67210      .   S
    C157   O498      0.69643      .   S
    C158   O498      0.69643      .   S
    C157   O499      0.54556      .   S
    C61    O499      0.54556      .   S
    C156   O500      0.69630  1_455   S
    C159   O500      0.69630      .   S
    C156   O501      0.54553      .   S
    C60    O501      0.54553      .   S
    C158   O502      0.54547      .   S
    C62    O502      0.54547      .   S
    C159   O503      0.54548      .   S
    C63    O503      0.54548      .   S
