# CIF file generated by openbabel 2.4.90, see http://openbabel.sf.net
data_I
_chemical_name_common ''
_cell_length_a 12.636
_cell_length_b 12.638
_cell_length_c 23.81
_cell_angle_alpha 81.895
_cell_angle_beta 81.878
_cell_angle_gamma 65.765
_space_group_name_H-M_alt 'P 1'
_space_group_name_Hall 'P 1'
loop_
    _symmetry_equiv_pos_as_xyz
    x,y,z
loop_
    _atom_site_label
    _atom_site_type_symbol
    _atom_site_fract_x
    _atom_site_fract_y
    _atom_site_fract_z
    _atom_site_occupancy
    H0      H    0.51161   0.45105   0.71056   1.000
    H1      H    0.51251   0.33952   0.67288   1.000
    H2      H    0.39204   0.64747   0.68510   1.000
    H3      H    0.23732   0.79397   0.62729   1.000
    H4      H    0.12096   0.73045   0.57372   1.000
    H5      H    0.31078   0.37527   0.63724   1.000
    H6      H    0.16754   0.41498   0.57538   1.000
    H7      H    0.14058   0.54004   0.52509   1.000
    H8      H    0.19166   0.49630   0.86037   1.000
    H9      H    0.08812   0.64059   0.93276   1.000
    H10     H    0.18694   0.35270   0.06307   1.000
    H11     H    0.28120   0.21981   0.98480   1.000
    H12     H    0.03220   0.55329   0.08491   1.000
    H13     H    0.00908   0.67319   0.03303   1.000
    H14     H    0.12529   0.66780   0.11221   1.000
    H15     H    0.23608   0.53634   0.09075   1.000
    H16     H    0.15480   0.77147   0.01732   1.000
    H17     H    0.26312   0.64014   0.99385   1.000
    H18     H    0.21406   0.89432   0.06409   1.000
    H19     H    0.37106   0.91929   0.10770   1.000
    H20     H    0.58616   0.57023   0.10192   1.000
    H21     H    0.44201   0.53065   0.05722   1.000
    H22     H    0.16916   0.36833   0.75833   1.000
    H23     H    0.98384   0.38261   0.72718   1.000
    H24     H    0.00656   0.08723   0.84892   1.000
    H25     H    0.19062   0.08725   0.87576   1.000
    H26     H    0.79817   0.26536   0.80507   1.000
    H27     H    0.83374   0.31118   0.73447   1.000
    H28     H    0.89964   0.05596   0.78571   1.000
    H29     H    0.54623   0.48910   0.79017   1.000
    H30     H    0.65795   0.48738   0.82800   1.000
    H31     H    0.35018   0.60900   0.81548   1.000
    H32     H    0.20371   0.76375   0.87336   1.000
    H33     H    0.26749   0.87945   0.92723   1.000
    H34     H    0.62280   0.68882   0.86398   1.000
    H35     H    0.58301   0.83233   0.92584   1.000
    H36     H    0.45775   0.85940   0.97601   1.000
    H37     H    0.50381   0.80770   0.64053   1.000
    H38     H    0.35948   0.91184   0.56825   1.000
    H39     H    0.64721   0.81245   0.43780   1.000
    H40     H    0.78015   0.71747   0.51590   1.000
    H41     H    0.44640   0.96813   0.41620   1.000
    H42     H    0.32659   0.99060   0.46815   1.000
    H43     H    0.33215   0.87513   0.38859   1.000
    H44     H    0.46371   0.76429   0.40988   1.000
    H45     H    0.22860   0.84473   0.48344   1.000
    H46     H    0.36004   0.73618   0.50664   1.000
    H47     H    0.10553   0.78604   0.43655   1.000
    H48     H    0.08056   0.62997   0.39214   1.000
    H49     H    0.42992   0.41514   0.39000   1.000
    H50     H    0.46959   0.55844   0.44234   1.000
    H51     H    0.63201   0.82935   0.74280   1.000
    H52     H    0.61725   0.01537   0.77331   1.000
    H53     H    0.91127   0.99304   0.65060   1.000
    H54     H    0.91175   0.80822   0.62442   1.000
    H55     H    0.73603   0.20044   0.69410   1.000
    H56     H    0.68699   0.16716   0.76451   1.000
    H57     H    0.94424   0.09675   0.71565   1.000
    H58     H    0.48837   0.54890   0.28941   1.000
    H59     H    0.48747   0.66044   0.32708   1.000
    H60     H    0.60794   0.35249   0.31487   1.000
    H61     H    0.76267   0.20600   0.37269   1.000
    H62     H    0.87902   0.26953   0.42625   1.000
    H63     H    0.68919   0.62471   0.36272   1.000
    H64     H    0.83238   0.58501   0.42461   1.000
    H65     H    0.85940   0.45992   0.47488   1.000
    H66     H    0.80831   0.50366   0.13950   1.000
    H67     H    0.91185   0.35938   0.06719   1.000
    H68     H    0.81303   0.64727   0.93689   1.000
    H69     H    0.71877   0.78016   0.01510   1.000
    H70     H    0.96776   0.44668   0.91504   1.000
    H71     H    0.99089   0.32678   0.96690   1.000
    H72     H    0.87467   0.33218   0.88775   1.000
    H73     H    0.76388   0.46363   0.90921   1.000
    H74     H    0.84517   0.22850   0.98264   1.000
    H75     H    0.73686   0.35982   0.00000   1.000
    H76     H    0.78591   0.10564   0.93587   1.000
    H77     H    0.62891   0.08067   0.89226   1.000
    H78     H    0.41381   0.42973   0.89805   1.000
    H79     H    0.55796   0.46932   0.94274   1.000
    H80     H    0.83085   0.63161   0.24162   1.000
    H81     H    0.01614   0.61736   0.27270   1.000
    H82     H    0.99339   0.91276   0.15105   1.000
    H83     H    0.80934   0.91271   0.12421   1.000
    H84     H    0.20181   0.73461   0.19490   1.000
    H85     H    0.16622   0.68881   0.26550   1.000
    H86     H    0.10035   0.94402   0.21425   1.000
    H87     H    0.45375   0.51084   0.20900   1.000
    H88     H    0.34203   0.51258   0.17197   1.000
    H89     H    0.64980   0.39095   0.18448   1.000
    H90     H    0.79627   0.23621   0.12659   1.000
    H91     H    0.73248   0.12051   0.07273   1.000
    H92     H    0.37718   0.31113   0.13599   1.000
    H93     H    0.41696   0.16762   0.07412   1.000
    H94     H    0.54222   0.14056   0.02395   1.000
    H95     H    0.49616   0.19226   0.35943   1.000
    C96     C    0.49670   0.35954   0.90782   1.000
    C97     C    0.57814   0.38113   0.93261   1.000
    C98     C    0.86976   0.69263   0.22260   1.000
    C99     C    0.97362   0.68536   0.23994   1.000
    H100    H    0.64050   0.08811   0.43171   1.000
    H101    H    0.35279   0.18750   0.56217   1.000
    H102    H    0.21984   0.28248   0.48400   1.000
    H103    H    0.55361   0.03181   0.58373   1.000
    H104    H    0.67341   0.00936   0.53180   1.000
    H105    H    0.66786   0.12481   0.61137   1.000
    H106    H    0.53629   0.23565   0.59009   1.000
    H107    H    0.77138   0.15525   0.51651   1.000
    H108    H    0.63993   0.26380   0.49330   1.000
    H109    H    0.89446   0.21392   0.56340   1.000
    H110    H    0.91942   0.36999   0.60783   1.000
    H111    H    0.57006   0.58483   0.60296   1.000
    H112    H    0.53039   0.44153   0.55761   1.000
    H113    H    0.36796   0.17063   0.25716   1.000
    H114    H    0.38272   0.98460   0.22660   1.000
    H115    H    0.08872   0.00692   0.34930   1.000
    H116    H    0.08823   0.19175   0.37555   1.000
    H117    H    0.26393   0.79953   0.30587   1.000
    H118    H    0.31298   0.83280   0.23546   1.000
    H119    H    0.05572   0.90324   0.28431   1.000
    C120    C    0.45637   0.41100   0.69869   1.000
    C121    C    0.36202   0.50153   0.66472   1.000
    C122    C    0.34028   0.62001   0.66199   1.000
    C123    C    0.25376   0.70176   0.62928   1.000
    C124    C    0.18842   0.66670   0.59928   1.000
    C125    C    0.20809   0.54847   0.60189   1.000
    C126    C    0.29493   0.46752   0.63473   1.000
    C127    C    0.13521   0.51045   0.57065   1.000
    C128    C    0.18613   0.46864   0.90582   1.000
    C129    C    0.13045   0.54800   0.94644   1.000
    C130    C    0.12969   0.50892   0.00400   1.000
    C131    C    0.18511   0.38850   0.01856   1.000
    C132    C    0.23790   0.31409   0.97569   1.000
    C133    C    0.07630   0.59154   0.05011   1.000
    C134    C    0.16759   0.61855   0.07497   1.000
    C135    C    0.22312   0.68788   0.03185   1.000
    C136    C    0.31441   0.70984   0.05666   1.000
    C137    C    0.29556   0.81973   0.07180   1.000
    C138    C    0.38208   0.83469   0.09600   1.000
    C139    C    0.50327   0.64042   0.09215   1.000
    C140    C    0.42183   0.61883   0.06735   1.000
    C141    C    0.13024   0.30731   0.77734   1.000
    C142    C    0.02636   0.31459   0.76002   1.000
    C143    C    0.97804   0.23530   0.78529   1.000
    C144    C    0.03911   0.15164   0.82749   1.000
    C145    C    0.14197   0.15028   0.84270   1.000
    C146    C    0.86498   0.24051   0.76855   1.000
    C147    C    0.58666   0.54389   0.80217   1.000
    C148    C    0.49629   0.63834   0.83615   1.000
    C149    C    0.37771   0.66047   0.83875   1.000
    C150    C    0.29600   0.74700   0.87148   1.000
    C151    C    0.33119   0.81198   0.90164   1.000
    C152    C    0.44952   0.79195   0.89915   1.000
    C153    C    0.53046   0.70502   0.86634   1.000
    C154    C    0.48753   0.86471   0.93048   1.000
    C155    C    0.53142   0.81321   0.59507   1.000
    C156    C    0.45204   0.86925   0.55451   1.000
    C157    C    0.49105   0.86997   0.49646   1.000
    C158    C    0.61146   0.81426   0.48230   1.000
    C159    C    0.68589   0.76106   0.52512   1.000
    C160    C    0.40831   0.92365   0.45091   1.000
    C161    C    0.38145   0.83258   0.42578   1.000
    C162    C    0.31220   0.77663   0.46871   1.000
    C163    C    0.29020   0.68577   0.44353   1.000
    C164    C    0.18019   0.70478   0.42848   1.000
    C165    C    0.16522   0.61877   0.40385   1.000
    C166    C    0.35968   0.49776   0.40714   1.000
    C167    C    0.38131   0.57871   0.43232   1.000
    C168    C    0.69268   0.86847   0.72346   1.000
    C169    C    0.68514   0.97272   0.74040   1.000
    C170    C    0.76395   0.02129   0.71470   1.000
    C171    C    0.84731   0.96019   0.67240   1.000
    C172    C    0.84896   0.85696   0.65750   1.000
    C173    C    0.75882   0.13456   0.73107   1.000
    C174    C    0.54361   0.58895   0.30128   1.000
    C175    C    0.63796   0.49843   0.33524   1.000
    C176    C    0.65970   0.37995   0.33798   1.000
    C177    C    0.74623   0.29821   0.37069   1.000
    C178    C    0.81156   0.33328   0.40069   1.000
    C179    C    0.79189   0.45151   0.39807   1.000
    C180    C    0.70504   0.53245   0.36524   1.000
    C181    C    0.86475   0.48955   0.42932   1.000
    C182    C    0.81384   0.53132   0.09413   1.000
    C183    C    0.86952   0.45197   0.05352   1.000
    C184    C    0.87028   0.49105   0.99546   1.000
    C185    C    0.81486   0.61147   0.98100   1.000
    C186    C    0.76207   0.68588   0.02427   1.000
    C187    C    0.92367   0.40843   0.94985   1.000
    C188    C    0.83237   0.38142   0.92499   1.000
    C189    C    0.77686   0.31209   0.96811   1.000
    C190    C    0.68556   0.29012   0.94330   1.000
    C191    C    0.70441   0.18023   0.92816   1.000
    C192    C    0.61790   0.16527   0.90397   1.000
    C193    C    0.02193   0.76468   0.21467   1.000
    C194    C    0.96085   0.84834   0.17248   1.000
    C195    C    0.85800   0.84969   0.15727   1.000
    C196    C    0.13499   0.75947   0.23140   1.000
    C197    C    0.41332   0.45605   0.19700   1.000
    C198    C    0.50369   0.36161   0.16381   1.000
    C199    C    0.62227   0.33949   0.16121   1.000
    C200    C    0.70398   0.25295   0.12848   1.000
    C201    C    0.66878   0.18798   0.09832   1.000
    C202    C    0.55046   0.20800   0.10081   1.000
    C203    C    0.46952   0.29494   0.13362   1.000
    C204    C    0.51245   0.13525   0.06948   1.000
    C205    C    0.46855   0.18674   0.40489   1.000
    C206    C    0.54794   0.13071   0.44545   1.000
    C207    C    0.50894   0.12998   0.50350   1.000
    C208    C    0.38853   0.18569   0.51765   1.000
    C209    C    0.31409   0.23889   0.47485   1.000
    C210    C    0.59169   0.07630   0.54904   1.000
    C211    C    0.61856   0.16737   0.57418   1.000
    C212    C    0.68778   0.22334   0.53125   1.000
    C213    C    0.70978   0.31419   0.55643   1.000
    C214    C    0.81980   0.29518   0.57149   1.000
    C215    C    0.83476   0.38119   0.59612   1.000
    C216    C    0.64030   0.50221   0.59282   1.000
    C217    C    0.61868   0.42126   0.56764   1.000
    C218    C    0.30729   0.13151   0.27650   1.000
    C219    C    0.31483   0.02725   0.25953   1.000
    C220    C    0.23603   0.97868   0.28527   1.000
    C221    C    0.15267   0.03978   0.32758   1.000
    C222    C    0.15102   0.14301   0.34242   1.000
    C223    C    0.24115   0.86541   0.26890   1.000
    C224    C    0.87389   0.12494   0.75031   1.000
    C225    C    0.12608   0.87504   0.24966   1.000
    N226    N    0.23937   0.35315   0.91999   1.000
    N227    N    0.48502   0.74659   0.10620   1.000
    N228    N    0.18792   0.22689   0.81815   1.000
    N229    N    0.64688   0.75956   0.58084   1.000
    N230    N    0.25341   0.51616   0.39310   1.000
    N231    N    0.77285   0.81071   0.68258   1.000
    N232    N    0.76060   0.64682   0.07997   1.000
    N233    N    0.51495   0.25337   0.89376   1.000
    N234    N    0.81207   0.77306   0.18181   1.000
    N235    N    0.35309   0.24040   0.41913   1.000
    N236    N    0.74657   0.48380   0.60682   1.000
    N237    N    0.22711   0.18926   0.31739   1.000
loop_
    _geom_bond_atom_site_label_1
    _geom_bond_atom_site_label_2
    _geom_bond_distance
    _geom_bond_site_symmetry_2
    _ccdc_geom_bond_type
    H75    C189      0.98299  1_554   S
    C130   C131      1.40413      .   S
    C130   C133      1.51209      .   S
    C130   C129      1.38982  1_554   S
    H69    C186      1.09172      .   S
    H16    C135      1.10158      .   S
    C131   H10       1.09155      .   S
    C131   C132      1.39087  1_554   S
    H94    C204      1.09829      .   S
    C186   N232      1.34865      .   S
    C186   C185      1.39812  1_554   S
    C135   C136      1.50284      .   S
    C135   C134      1.53670      .   S
    C135   H17       1.10108  1_554   S
    H13    C133      1.10066      .   S
    C133   C134      1.53971      .   S
    C133   H12       1.09929      .   S
    C183   H67       1.09053      .   S
    C183   C182      1.39199      .   S
    C183   C184      1.40097  1_554   S
    C136   C140      1.40125      .   S
    C136   C137      1.40030      .   S
    H21    C140      1.09107      .   S
    H18    C137      1.09113      .   S
    C140   C139      1.38912      .   S
    C204   H93       1.09784      .   S
    C204   C202      1.51321      .   S
    C137   C138      1.39325      .   S
    H91    C201      1.09117      .   S
    C134   H15       1.10141      .   S
    C134   H14       1.09905      .   S
    N232   C182      1.34759      .   S
    C139   H20       1.08906      .   S
    C139   N227      1.34767      .   S
    C182   H66       1.08917      .   S
    C138   N227      1.34713      .   S
    C138   H19       1.09130      .   S
    C201   C202      1.40411      .   S
    C201   C200      1.39433      .   S
    C202   C203      1.39897      .   S
    H83    C195      1.09088      .   S
    H90    C200      1.09182      .   S
    C200   C199      1.39831      .   S
    C203   H92       1.09328      .   S
    C203   C198      1.40367      .   S
    H82    C194      1.09113      .   S
    C195   C194      1.39052      .   S
    C195   N234      1.34990      .   S
    C199   C198      1.40066      .   S
    C199   H89       1.09214      .   S
    C198   C197      1.49842      .   S
    H88    C197      1.08635      .   S
    C194   C193      1.40440  1_655   S
    N234   C98       1.34948      .   S
    H84    C196      1.10398      .   S
    C197   H87       1.09982      .   S
    H86    C225      1.10177      .   S
    C193   C196      1.50995      .   S
    C193   C99       1.40282  1_455   S
    C98    C99       1.39460      .   S
    C98    H80       1.09157      .   S
    H114   C219      1.09122  1_565   S
    C196   C225      1.53797      .   S
    C196   H85       1.09966      .   S
    H118   C223      1.09951      .   S
    C99    H81       1.08909  1_655   S
    C225   C223      1.53813      .   S
    C225   H119      1.10164      .   S
    H113   C218      1.09146      .   S
    C219   C218      1.39446      .   S
    C219   C220      1.40258  1_545   S
    C223   C220      1.50980      .   S
    C223   H117      1.10417      .   S
    C218   N237      1.34969      .   S
    C220   C221      1.40439  1_565   S
    H58    C174      1.09982      .   S
    C174   H59       1.09731      .   S
    C174   C175      1.50853      .   S
    H60    C176      1.09218      .   S
    N237   C222      1.35005      .   S
    C221   C222      1.39035      .   S
    C221   H115      1.09065      .   S
    C175   C176      1.40058      .   S
    C175   C180      1.40365      .   S
    C176   C177      1.39846      .   S
    C222   H116      1.09091      .   S
    H95    C205      1.09093      .   S
    H63    C180      1.09323      .   S
    C180   C179      1.39896      .   S
    C177   H61       1.09176      .   S
    C177   C178      1.39446      .   S
    H43    C161      1.09902      .   S
    H49    C166      1.14085      .   S
    H48    C165      1.09137      .   S
    N230   C165      1.34745      .   S
    N230   C166      1.34827      .   S
    C179   C178      1.40410      .   S
    C179   C181      1.51332      .   S
    C178   H62       1.09113      .   S
    C165   C164      1.39317      .   S
    C205   N235      1.34763      .   S
    C205   C206      1.39216      .   S
    C166   C167      1.38906      .   S
    H44    C161      1.10146      .   S
    H41    C160      1.09969      .   S
    N235   C209      1.34877      .   S
    H64    C181      1.09781      .   S
    C161   C160      1.53960      .   S
    C161   C162      1.53680      .   S
    C164   H47       1.09114      .   S
    C164   C163      1.40039      .   S
    C181   H65       1.09866      .   S
    H100   C206      1.09062      .   S
    C167   H50       1.09106      .   S
    C167   C163      1.40124      .   S
    H39    C158      1.09102      .   S
    C163   C162      1.50281      .   S
    C206   C207      1.40034      .   S
    C160   H42       1.10073      .   S
    C160   C157      1.50335      .   S
    C162   H45       1.10165      .   S
    C162   H46       1.10121      .   S
    C209   H102      1.09150      .   S
    C209   C208      1.39061      .   S
    C158   C157      1.40247      .   S
    C158   C159      1.39093      .   S
    H108   C212      1.10170      .   S
    C157   C156      1.40037      .   S
    C207   C208      1.40243      .   S
    C207   C210      1.50324      .   S
    H40    C159      1.09171      .   S
    H107   C212      1.10167      .   S
    C208   H101      1.09144      .   S
    H7     C127      1.09857      .   S
    C159   N229      1.34879      .   S
    C212   C213      1.50276      .   S
    C212   C211      1.53681      .   S
    H104   C210      1.10068      .   S
    C210   C211      1.53971      .   S
    C210   H103      1.09939      .   S
    C156   H38       1.09062      .   S
    C156   C155      1.39212      .   S
    C213   C217      1.40125      .   S
    C213   C214      1.40046      .   S
    H112   C217      1.09112      .   S
    H109   C214      1.09124      .   S
    C217   C216      1.38906      .   S
    C127   H6        1.09781      .   S
    C127   C125      1.51324      .   S
    C214   C215      1.39319      .   S
    H4     C124      1.09113      .   S
    C211   H106      1.10147      .   S
    C211   H105      1.09911      .   S
    N229   C155      1.34761      .   S
    C216   H111      1.08904      .   S
    C216   N236      1.34788      .   S
    C155   H37       1.09094      .   S
    C215   N236      1.34719      .   S
    C215   H110      1.09135      .   S
    C124   C125      1.40411      .   S
    C124   C123      1.39447      .   S
    C125   C126      1.39909      .   S
    H54    C172      1.09009      .   S
    H3     C123      1.09178      .   S
    C123   C122      1.39843      .   S
    C126   H5        1.09325      .   S
    C126   C121      1.40351      .   S
    H53    C171      1.09128      .   S
    C172   C171      1.39085      .   S
    C172   N231      1.35042      .   S
    C122   C121      1.40061      .   S
    C122   H2        1.09218      .   S
    C121   C120      1.50868      .   S
    C171   C170      1.40427  1_565   S
    H1     C120      1.09739      .   S
    N231   C168      1.34952      .   S
    H55    C173      1.10417      .   S
    C120   H0        1.09984      .   S
    C170   C173      1.50981      .   S
    C170   C169      1.40235  1_545   S
    H57    C224      1.10174      .   S
    C168   C169      1.39415      .   S
    C168   H51       1.09148      .   S
    H23    C142      1.09038  1_655   S
    C173   C224      1.53819      .   S
    C173   H56       1.09948      .   S
    H27    C146      1.09940      .   S
    C169   H52       1.09090  1_565   S
    C224   C146      1.53773      .   S
    C224   H28       1.10166      .   S
    H22    C141      1.09149      .   S
    C142   C141      1.39444      .   S
    C142   C143      1.40278  1_455   S
    C146   C143      1.51008      .   S
    C146   H26       1.10426      .   S
    C141   N228      1.34975      .   S
    C143   C144      1.40452  1_655   S
    H29    C147      1.09985      .   S
    C147   H30       1.09738      .   S
    C147   C148      1.50856      .   S
    H31    C149      1.09214      .   S
    N228   C145      1.34993      .   S
    C144   C145      1.39054      .   S
    C144   H24       1.09111      .   S
    C148   C149      1.40065      .   S
    C148   C153      1.40368      .   S
    C149   C150      1.39833      .   S
    C145   H25       1.09083      .   S
    H8     C128      1.09095      .   S
    H34    C153      1.09329      .   S
    C153   C152      1.39899      .   S
    C150   H32       1.09184      .   S
    C150   C151      1.39431      .   S
    H72    C188      1.09903      .   S
    H77    C192      1.09137      .   S
    N233   C192      1.34718      .   S
    N233   C96       1.34773      .   S
    H78    C96       1.08907      .   S
    C152   C151      1.40412      .   S
    C152   C154      1.51319      .   S
    C151   H33       1.09117      .   S
    C192   C191      1.39316      .   S
    C128   N226      1.34762      .   S
    C128   C129      1.39218      .   S
    C96    C97       1.38901      .   S
    H73    C188      1.10143      .   S
    H70    C187      1.09942      .   S
    N226   C132      1.34864      .   S
    C188   C187      1.53975      .   S
    C188   C189      1.53667      .   S
    H35    C154      1.09783      .   S
    C191   H76       1.09113      .   S
    C191   C190      1.40030      .   S
    C154   H36       1.09830      .   S
    C97    H79       1.09108      .   S
    C97    C190      1.40126      .   S
    H9     C129      1.09058      .   S
    H68    C185      1.08284      .   S
    C190   C189      1.50287      .   S
    C187   H71       1.10043      .   S
    C187   C184      1.50302      .   S
    C189   H74       1.10159      .   S
    C132   H11       1.09154      .   S
    C185   C184      1.40375      .   S
