# CIF file generated by openbabel 2.4.90, see http://openbabel.sf.net
data_I
_chemical_name_common ''
_cell_length_a 12.636
_cell_length_b 12.638
_cell_length_c 23.81
_cell_angle_alpha 81.895
_cell_angle_beta 81.878
_cell_angle_gamma 65.765
_space_group_name_H-M_alt 'P 1'
_space_group_name_Hall 'P 1'
loop_
    _symmetry_equiv_pos_as_xyz
    x,y,z
loop_
    _atom_site_label
    _atom_site_type_symbol
    _atom_site_fract_x
    _atom_site_fract_y
    _atom_site_fract_z
    _atom_site_occupancy
    C0      C    0.41060   0.35780   0.75367   1.000
    C1      C    0.00700   0.56128   0.59460   1.000
    C2      C    0.64034   0.58935   0.74727   1.000
    C3      C    0.43674   0.99288   0.90649   1.000
    C4      C    0.58938   0.64215   0.24600   1.000
    C5      C    0.99295   0.43878   0.40532   1.000
    C6      C    0.35963   0.41059   0.25269   1.000
    C7      C    0.56324   0.00708   0.09348   1.000
