# CIF file generated by openbabel 2.4.90, see http://openbabel.sf.net
data_I
_chemical_name_common ''
_cell_length_a 13.4
_cell_length_b 13.401
_cell_length_c 13.401
_cell_angle_alpha 59.977
_cell_angle_beta 59.995
_cell_angle_gamma 59.995
_space_group_name_H-M_alt 'P 1'
_space_group_name_Hall 'P 1'
loop_
    _symmetry_equiv_pos_as_xyz
    x,y,z
loop_
    _atom_site_label
    _atom_site_type_symbol
    _atom_site_fract_x
    _atom_site_fract_y
    _atom_site_fract_z
    _atom_site_occupancy
    Lv0     Lv   0.91232   0.83643   0.83642   1.000
    Lv1     Lv   0.08763   0.16235   0.16235   1.000
    Lv2     Lv   0.08784   0.16211   0.58774   1.000
    Lv3     Lv   0.08784   0.58776   0.16210   1.000
    Lv4     Lv   0.91211   0.83663   0.41224   1.000
