# CIF file generated by openbabel 2.4.90, see http://openbabel.sf.net
data_I
_chemical_name_common ''
_cell_length_a 13.4
_cell_length_b 13.401
_cell_length_c 13.401
_cell_angle_alpha 59.977
_cell_angle_beta 59.995
_cell_angle_gamma 59.995
_space_group_name_H-M_alt 'P 1'
_space_group_name_Hall 'P 1'
loop_
    _symmetry_equiv_pos_as_xyz
    x,y,z
loop_
    _atom_site_label
    _atom_site_type_symbol
    _atom_site_fract_x
    _atom_site_fract_y
    _atom_site_fract_z
    _atom_site_occupancy
    N0      N    0.91232   0.83643   0.83642   1.000
    N1      N    0.08763   0.16235   0.16235   1.000
    N2      N    0.08784   0.16211   0.58774   1.000
    N3      N    0.08784   0.58776   0.16210   1.000
    N4      N    0.91211   0.83663   0.41224   1.000
    Zr5     Zr   0.40525   0.48846   0.54531   1.000
    O6      O    0.20915   0.50076   0.39112   1.000
    O7      O    0.20910   0.36277   0.39119   1.000
    O8      O    0.20915   0.36270   0.52918   1.000
    O9      O    0.19607   0.62545   0.51613   1.000
    O10     O    0.19613   0.62539   0.65381   1.000
    Zr11    Zr   0.99999   0.00002   0.00000   1.000
loop_
    _geom_bond_atom_site_label_1
    _geom_bond_atom_site_label_2
    _geom_bond_distance
    _geom_bond_site_symmetry_2
    _ccdc_geom_bond_type
    Zr5    O6        3.98224      .   S
    N3     O6        3.59648      .   S
    Zr5    O7        5.22976      .   S
    N1     O7        6.07253      .   S
    Zr5    O8        3.89284      .   S
    N2     O8        3.38646      .   S
    Zr5    O9        2.57124      .   S
    N4     O9        3.87446  1_655   S
    Zr5    O10       2.60492      .   S
    N0     O10       3.91286  1_655   S
