# CIF file generated by openbabel 2.4.90, see http://openbabel.sf.net
data_I
_chemical_name_common ''
_cell_length_a 15.428
_cell_length_b 20.134
_cell_length_c 17.805
_cell_angle_alpha 89.98
_cell_angle_beta 89.987
_cell_angle_gamma 89.995
_space_group_name_H-M_alt 'P 1'
_space_group_name_Hall 'P 1'
loop_
    _symmetry_equiv_pos_as_xyz
    x,y,z
loop_
    _atom_site_label
    _atom_site_type_symbol
    _atom_site_fract_x
    _atom_site_fract_y
    _atom_site_fract_z
    _atom_site_occupancy
    N0      N    0.15328   0.25053   0.33229   1.000
    N1      N    0.15328   0.75055   0.33226   1.000
    N2      N    0.65327   0.25053   0.33228   1.000
    N3      N    0.65328   0.75053   0.33226   1.000
    N4      N    0.59666   0.24947   0.83235   1.000
    N5      N    0.59664   0.74948   0.83235   1.000
    N6      N    0.09662   0.24947   0.83239   1.000
    N7      N    0.09662   0.74948   0.83240   1.000
    N8      N    0.34686   0.50053   0.66779   1.000
    N9      N    0.34685   0.00053   0.66780   1.000
    N10     N    0.84683   0.50052   0.66780   1.000
    N11     N    0.84682   0.00054   0.66778   1.000
    N12     N    0.90338   0.99947   0.16757   1.000
    N13     N    0.90339   0.49947   0.16757   1.000
    N14     N    0.40343   0.99945   0.16752   1.000
    N15     N    0.40342   0.49946   0.16753   1.000
    N16     N    0.34677   0.24948   0.66769   1.000
    N17     N    0.34677   0.74950   0.66771   1.000
    N18     N    0.84673   0.24948   0.66770   1.000
    N19     N    0.84674   0.74948   0.66769   1.000
    N20     N    0.90339   0.25055   0.16758   1.000
    N21     N    0.90339   0.75055   0.16759   1.000
    N22     N    0.40335   0.25054   0.16763   1.000
    N23     N    0.40335   0.75055   0.16764   1.000
    N24     N    0.15319   0.99949   0.33218   1.000
    N25     N    0.15320   0.49949   0.33219   1.000
    N26     N    0.65318   0.99948   0.33219   1.000
    N27     N    0.65320   0.49950   0.33217   1.000
    N28     N    0.59658   0.50057   0.83247   1.000
    N29     N    0.59659   0.00057   0.83247   1.000
    N30     N    0.09663   0.50054   0.83241   1.000
    N31     N    0.09664   0.00055   0.83240   1.000
    N32     N    0.12820   0.12501   0.58602   1.000
    N33     N    0.12822   0.62502   0.58603   1.000
    N34     N    0.62819   0.12501   0.58602   1.000
    N35     N    0.62821   0.62501   0.58602   1.000
    N36     N    0.12120   0.37499   0.08591   1.000
    N37     N    0.12120   0.87501   0.08590   1.000
    N38     N    0.62118   0.37501   0.08591   1.000
    N39     N    0.62117   0.87501   0.08590   1.000
    N40     N    0.37185   0.37501   0.41396   1.000
    N41     N    0.37185   0.87502   0.41397   1.000
    N42     N    0.87182   0.37500   0.41395   1.000
    N43     N    0.87181   0.87501   0.41395   1.000
    N44     N    0.87880   0.12502   0.91407   1.000
    N45     N    0.87879   0.62502   0.91407   1.000
    N46     N    0.37881   0.12500   0.91407   1.000
    N47     N    0.37880   0.62502   0.91407   1.000
    Zr48    Zr   0.51745   0.87500   0.26535   1.000
    O49     O    0.47901   0.83408   0.23416   1.000
    O50     O    0.47012   0.87501   0.31430   1.000
    O51     O    0.47904   0.91592   0.23413   1.000
    O52     O    0.56197   0.91562   0.28755   1.000
    O53     O    0.55271   0.87500   0.20681   1.000
    O54     O    0.56200   0.83439   0.28757   1.000
    Zr55    Zr   0.29608   0.37506   0.57538   1.000
    O56     O    0.31422   0.41686   0.60639   1.000
    O57     O    0.31418   0.33322   0.60635   1.000
    O58     O    0.32284   0.37504   0.52172   1.000
    Zr59    Zr   0.29608   0.87507   0.57539   1.000
    O60     O    0.31418   0.83323   0.60636   1.000
    O61     O    0.32284   0.87505   0.52173   1.000
    O62     O    0.31421   0.91686   0.60640   1.000
    Zr63    Zr   0.79606   0.37506   0.57538   1.000
    O64     O    0.82281   0.37504   0.52172   1.000
    O65     O    0.81415   0.33322   0.60635   1.000
    O66     O    0.81419   0.41685   0.60640   1.000
    Zr67    Zr   0.79605   0.87507   0.57538   1.000
    O68     O    0.81419   0.91686   0.60638   1.000
    O69     O    0.81415   0.83322   0.60635   1.000
    O70     O    0.82281   0.87504   0.52172   1.000
    Zr71    Zr   0.26680   0.37502   0.23450   1.000
    O72     O    0.22858   0.41594   0.26570   1.000
    O73     O    0.31160   0.33440   0.21229   1.000
    O74     O    0.21950   0.37501   0.18554   1.000
    O75     O    0.31162   0.41563   0.21225   1.000
    O76     O    0.30252   0.37502   0.29306   1.000
    O77     O    0.22861   0.33409   0.26573   1.000
    Zr78    Zr   0.26679   0.87503   0.23451   1.000
    O79     O    0.22858   0.91595   0.26571   1.000
    O80     O    0.30252   0.87503   0.29307   1.000
    O81     O    0.31162   0.91563   0.21226   1.000
    O82     O    0.21950   0.87502   0.18555   1.000
    O83     O    0.22861   0.83410   0.26573   1.000
    O84     O    0.31160   0.83441   0.21230   1.000
    Zr85    Zr   0.76678   0.37501   0.23450   1.000
    O86     O    0.72860   0.33408   0.26573   1.000
    O87     O    0.81160   0.33439   0.21227   1.000
    O88     O    0.72857   0.41594   0.26570   1.000
    O89     O    0.80251   0.37501   0.29306   1.000
    O90     O    0.81160   0.41563   0.21227   1.000
    O91     O    0.71948   0.37501   0.18554   1.000
    Zr92    Zr   0.76678   0.87502   0.23450   1.000
    O93     O    0.81160   0.83440   0.21227   1.000
    O94     O    0.72856   0.91595   0.26570   1.000
    O95     O    0.80250   0.87502   0.29305   1.000
    O96     O    0.81160   0.91564   0.21227   1.000
    O97     O    0.71948   0.87502   0.18554   1.000
    O98     O    0.72860   0.83409   0.26572   1.000
    Zr99    Zr   0.45524   0.12505   0.07541   1.000
    O100    O    0.42826   0.12503   0.02178   1.000
    O101    O    0.43674   0.08319   0.10629   1.000
    O102    O    0.43671   0.16686   0.10634   1.000
    Zr103   Zr   0.45523   0.62506   0.07541   1.000
    O104    O    0.43674   0.58321   0.10630   1.000
    O105    O    0.43671   0.66687   0.10634   1.000
    O106    O    0.42825   0.62504   0.02178   1.000
    Zr107   Zr   0.95522   0.12502   0.07539   1.000
    O108    O    0.93672   0.16685   0.10630   1.000
    O109    O    0.92824   0.12502   0.02176   1.000
    O110    O    0.93672   0.08319   0.10630   1.000
    Zr111   Zr   0.95521   0.62502   0.07539   1.000
    O112    O    0.93671   0.58319   0.10630   1.000
    O113    O    0.92824   0.62502   0.02176   1.000
    O114    O    0.93671   0.66685   0.10631   1.000
    Zr115   Zr   0.48260   0.12501   0.73464   1.000
    O116    O    0.43807   0.08439   0.71244   1.000
    O117    O    0.52099   0.08409   0.76586   1.000
    O118    O    0.43804   0.16563   0.71241   1.000
    O119    O    0.52101   0.16594   0.76583   1.000
    O120    O    0.44731   0.12501   0.79318   1.000
    O121    O    0.52992   0.12501   0.68570   1.000
    Zr122   Zr   0.48261   0.62502   0.73460   1.000
    O123    O    0.43808   0.58441   0.71241   1.000
    O124    O    0.52100   0.58410   0.76584   1.000
    O125    O    0.52993   0.62502   0.68567   1.000
    O126    O    0.43805   0.66564   0.71239   1.000
    O127    O    0.44731   0.62503   0.79315   1.000
    O128    O    0.52102   0.66594   0.76580   1.000
    Zr129   Zr   0.98257   0.12502   0.73464   1.000
    O130    O    0.02099   0.16594   0.76584   1.000
    O131    O    0.02100   0.08409   0.76585   1.000
    O132    O    0.94729   0.12502   0.79318   1.000
    O133    O    0.93802   0.16563   0.71241   1.000
    O134    O    0.93804   0.08440   0.71244   1.000
    O135    O    0.02991   0.12502   0.68570   1.000
    Zr136   Zr   0.98258   0.62502   0.73464   1.000
    O137    O    0.93805   0.58440   0.71244   1.000
    O138    O    0.93803   0.66563   0.71241   1.000
    O139    O    0.02100   0.58410   0.76585   1.000
    O140    O    0.94729   0.62502   0.79318   1.000
    O141    O    0.02992   0.62502   0.68570   1.000
    O142    O    0.02100   0.66594   0.76584   1.000
    Zr143   Zr   0.51745   0.37500   0.26535   1.000
    O144    O    0.56200   0.33439   0.28757   1.000
    O145    O    0.47902   0.33408   0.23416   1.000
    O146    O    0.56198   0.41562   0.28754   1.000
    O147    O    0.47904   0.41592   0.23413   1.000
    O148    O    0.47013   0.37500   0.31428   1.000
    O149    O    0.55271   0.37500   0.20681   1.000
    Zr150   Zr   0.20393   0.12496   0.42460   1.000
    O151    O    0.18581   0.08316   0.39359   1.000
    O152    O    0.17718   0.12498   0.47826   1.000
    O153    O    0.18585   0.16680   0.39363   1.000
    Zr154   Zr   0.01745   0.87501   0.26535   1.000
    O155    O    0.97903   0.83408   0.23415   1.000
    O156    O    0.97903   0.91593   0.23414   1.000
    O157    O    0.97011   0.87500   0.31428   1.000
    O158    O    0.06198   0.91563   0.28754   1.000
    O159    O    0.05273   0.87501   0.20681   1.000
    O160    O    0.06200   0.83440   0.28753   1.000
    Zr161   Zr   0.20393   0.62496   0.42461   1.000
    O162    O    0.18581   0.58316   0.39360   1.000
    O163    O    0.17719   0.62498   0.47827   1.000
    O164    O    0.18585   0.66681   0.39363   1.000
    Zr165   Zr   0.70391   0.12495   0.42460   1.000
    O166    O    0.68579   0.08316   0.39359   1.000
    O167    O    0.67717   0.12498   0.47826   1.000
    O168    O    0.68583   0.16679   0.39363   1.000
    Zr169   Zr   0.70393   0.62496   0.42460   1.000
    O170    O    0.68581   0.58317   0.39358   1.000
    O171    O    0.67719   0.62498   0.47826   1.000
    O172    O    0.68585   0.66680   0.39362   1.000
    Zr173   Zr   0.23321   0.12500   0.76548   1.000
    O174    O    0.27141   0.16593   0.73425   1.000
    O175    O    0.19750   0.12501   0.70692   1.000
    O176    O    0.28051   0.12500   0.81444   1.000
    O177    O    0.27144   0.08408   0.73428   1.000
    O178    O    0.18841   0.08439   0.78771   1.000
    O179    O    0.18840   0.16563   0.78770   1.000
    Zr180   Zr   0.23321   0.62501   0.76548   1.000
    O181    O    0.18840   0.66563   0.78771   1.000
    O182    O    0.19751   0.62501   0.70693   1.000
    O183    O    0.18840   0.58439   0.78771   1.000
    O184    O    0.27142   0.66594   0.73425   1.000
    O185    O    0.28050   0.62501   0.81443   1.000
    O186    O    0.27144   0.58408   0.73428   1.000
    Zr187   Zr   0.73320   0.12500   0.76548   1.000
    O188    O    0.77139   0.16593   0.73425   1.000
    O189    O    0.69749   0.12500   0.70692   1.000
    O190    O    0.78050   0.12500   0.81444   1.000
    O191    O    0.68838   0.08438   0.78773   1.000
    O192    O    0.77142   0.08407   0.73428   1.000
    O193    O    0.68840   0.16562   0.78770   1.000
    Zr194   Zr   0.73320   0.62500   0.76548   1.000
    O195    O    0.68839   0.66562   0.78769   1.000
    O196    O    0.68837   0.58439   0.78773   1.000
    O197    O    0.78049   0.62501   0.81444   1.000
    O198    O    0.69749   0.62500   0.70692   1.000
    O199    O    0.77140   0.66593   0.73425   1.000
    O200    O    0.77142   0.58407   0.73429   1.000
    Zr201   Zr   0.04476   0.37499   0.92459   1.000
    O202    O    0.06328   0.41683   0.89368   1.000
    O203    O    0.07174   0.37499   0.97822   1.000
    O204    O    0.06327   0.33317   0.89367   1.000
    Zr205   Zr   0.04477   0.87500   0.92459   1.000
    O206    O    0.06328   0.83318   0.89367   1.000
    O207    O    0.06328   0.91684   0.89367   1.000
    O208    O    0.07175   0.87501   0.97821   1.000
    Zr209   Zr   0.54474   0.37497   0.92458   1.000
    O210    O    0.56324   0.41682   0.89370   1.000
    O211    O    0.57172   0.37498   0.97821   1.000
    O212    O    0.56328   0.33316   0.89365   1.000
    Zr213   Zr   0.54473   0.87497   0.92450   1.000
    O214    O    0.56324   0.91682   0.89365   1.000
    O215    O    0.57172   0.87499   0.97816   1.000
    O216    O    0.56327   0.83316   0.89360   1.000
    Zr217   Zr   0.01746   0.37500   0.26535   1.000
    O218    O    0.97012   0.37500   0.31429   1.000
    O219    O    0.06198   0.41562   0.28755   1.000
    O220    O    0.05273   0.37500   0.20681   1.000
    O221    O    0.97903   0.33408   0.23415   1.000
    O222    O    0.97903   0.41592   0.23414   1.000
    O223    O    0.06201   0.33439   0.28758   1.000
loop_
    _geom_bond_atom_site_label_1
    _geom_bond_atom_site_label_2
    _geom_bond_distance
    _geom_bond_site_symmetry_2
    _ccdc_geom_bond_type
    Zr48   O49       1.15726      .   S
    N23    O49       2.36571      .   S
    Zr48   O50       1.13677      .   S
    N41    O50       2.33392      .   S
    Zr48   O51       1.15702      .   S
    N14    O51       2.36521      .   S
    Zr48   O52       1.13894      .   S
    N26    O52       2.33771      .   S
    Zr48   O53       1.17569      .   S
    N39    O53       2.39768      .   S
    Zr48   O54       1.13910      .   S
    N3     O54       2.33803      .   S
    Zr55   O56       1.04491      .   S
    N8     O56       2.07092      .   S
    Zr55   O57       1.04466      .   S
    N16    O57       2.07055      .   S
    Zr55   O58       1.04068      .   S
    N40    O58       2.06221      .   S
    Zr59   O60       1.04461      .   S
    N17    O60       2.07046      .   S
    Zr59   O61       1.04066      .   S
    N41    O61       2.06212      .   S
    Zr59   O62       1.04483      .   S
    N9     O62       2.07075  1_545   S
    Zr63   O64       1.04068      .   S
    N42    O64       2.06223      .   S
    Zr63   O65       1.04465      .   S
    N18    O65       2.07055      .   S
    Zr63   O66       1.04484      .   S
    N10    O66       2.07080      .   S
    Zr67   O68       1.04479      .   S
    N11    O68       2.07078  1_545   S
    Zr67   O69       1.04468      .   S
    N19    O69       2.07060      .   S
    Zr67   O70       1.04070      .   S
    N43    O70       2.06224      .   S
    Zr71   O72       1.15550      .   S
    N25    O72       2.36304      .   S
    Zr71   O73       1.14155      .   S
    N22    O73       2.34226      .   S
    Zr71   O74       1.13688      .   S
    N36    O74       2.33412      .   S
    Zr71   O75       1.14173      .   S
    N15    O75       2.34255      .   S
    Zr71   O76       1.17946      .   S
    N40    O76       2.40391      .   S
    Zr71   O77       1.15543      .   S
    N0     O77       2.36291      .   S
    Zr78   O79       1.15545      .   S
    N24    O79       2.36290      .   S
    Zr78   O80       1.17951      .   S
    N41    O80       2.40403      .   S
    Zr78   O81       1.14170      .   S
    N14    O81       2.34248      .   S
    Zr78   O82       1.13691      .   S
    N37    O82       2.33425      .   S
    Zr78   O83       1.15531      .   S
    N1     O83       2.36257      .   S
    Zr78   O84       1.14160      .   S
    N23    O84       2.34233      .   S
    Zr85   O86       1.15538      .   S
    N2     O86       2.36281      .   S
    Zr85   O87       1.14179      .   S
    N20    O87       2.34268      .   S
    Zr85   O88       1.15549      .   S
    N27    O88       2.36301      .   S
    Zr85   O89       1.17940      .   S
    N42    O89       2.40379      .   S
    Zr85   O90       1.14165      .   S
    N13    O90       2.34244      .   S
    Zr85   O91       1.13692      .   S
    N38    O91       2.33418      .   S
    Zr92   O93       1.14180      .   S
    N21    O93       2.34269      .   S
    Zr92   O94       1.15550      .   S
    N26    O94       2.36296      .   S
    Zr92   O95       1.17934      .   S
    N43    O95       2.40370      .   S
    Zr92   O96       1.14162      .   S
    N12    O96       2.34237      .   S
    Zr92   O97       1.13696      .   S
    N39    O97       2.33427      .   S
    Zr92   O98       1.15534      .   S
    N3     O98       2.36272      .   S
    Zr99   O100      1.04180      .   S
    N46    O100      2.06403  1_556   S
    Zr99   O101      1.04568      .   S
    N14    O101      2.07229  1_565   S
    Zr99   O102      1.04590      .   S
    N22    O102      2.07260      .   S
    Zr103  O104      1.04569      .   S
    N15    O104      2.07231      .   S
    Zr103  O105      1.04589      .   S
    N23    O105      2.07260      .   S
    Zr103  O106      1.04180      .   S
    N47    O106      2.06409  1_556   S
    Zr107  O108      1.04584      .   S
    N20    O108      2.07269      .   S
    Zr107  O109      1.04167      .   S
    N44    O109      2.06383  1_556   S
    Zr107  O110      1.04566      .   S
    N12    O110      2.07224  1_565   S
    Zr111  O112      1.04569      .   S
    N13    O112      2.07230      .   S
    Zr111  O113      1.04168      .   S
    N45    O113      2.06385  1_556   S
    Zr111  O114      1.04590      .   S
    N21    O114      2.07266      .   S
    Zr115  O116      1.13902      .   S
    N9     O116      2.33787      .   S
    Zr115  O117      1.15694      .   S
    N29    O117      2.36509      .   S
    Zr115  O118      1.13912      .   S
    N16    O118      2.33807      .   S
    Zr115  O119      1.15717      .   S
    N4     O119      2.36560      .   S
    Zr115  O120      1.17574      .   S
    N46    O120      2.39773      .   S
    Zr115  O121      1.13673      .   S
    N34    O121      2.33385      .   S
    Zr122  O123      1.13895      .   S
    N8     O123      2.33778      .   S
    Zr122  O124      1.15704      .   S
    N28    O124      2.36533      .   S
    Zr122  O125      1.13660      .   S
    N35    O125      2.33368      .   S
    Zr122  O126      1.13905      .   S
    N17    O126      2.33795      .   S
    Zr122  O127      1.17605      .   S
    N47    O127      2.39819      .   S
    Zr122  O128      1.15722      .   S
    N5     O128      2.36562      .   S
    Zr129  O130      1.15726  1_655   S
    N6     O130      2.36569      .   S
    Zr129  O131      1.15702  1_655   S
    N31    O131      2.36521      .   S
    Zr129  O132      1.17570      .   S
    N44    O132      2.39763      .   S
    Zr129  O133      1.13914      .   S
    N18    O133      2.33809      .   S
    Zr129  O134      1.13906      .   S
    N11    O134      2.33796      .   S
    Zr129  O135      1.13685  1_655   S
    N32    O135      2.33406      .   S
    Zr136  O137      1.13911      .   S
    N10    O137      2.33808      .   S
    Zr136  O138      1.13911      .   S
    N19    O138      2.33805      .   S
    Zr136  O139      1.15706  1_655   S
    N30    O139      2.36536      .   S
    Zr136  O140      1.17574      .   S
    N45    O140      2.39770      .   S
    Zr136  O141      1.13686  1_655   S
    N33    O141      2.33409      .   S
    Zr136  O142      1.15727  1_655   S
    N7     O142      2.36572      .   S
    Zr143  O144      1.13904      .   S
    N2     O144      2.33792      .   S
    Zr143  O145      1.15732      .   S
    N22    O145      2.36581      .   S
    Zr143  O146      1.13903      .   S
    N27    O146      2.33789      .   S
    Zr143  O147      1.15709      .   S
    N15    O147      2.36540      .   S
    Zr143  O148      1.13658      .   S
    N40    O148      2.33389      .   S
    Zr143  O149      1.17565      .   S
    N38    O149      2.39756      .   S
    Zr150  O151      1.04480      .   S
    N24    O151      2.07075  1_565   S
    Zr150  O152      1.04062      .   S
    N32    O152      2.06205      .   S
    Zr150  O153      1.04459      .   S
    N0     O153      2.07047      .   S
    Zr154  O155      1.15735  1_455   S
    N21    O155      2.36583      .   S
    Zr154  O156      1.15712  1_455   S
    N12    O156      2.36538      .   S
    Zr154  O157      1.13674  1_455   S
    N43    O157      2.33412      .   S
    Zr154  O158      1.13898      .   S
    N24    O158      2.33779      .   S
    Zr154  O159      1.17575      .   S
    N37    O159      2.39773      .   S
    Zr154  O160      1.13877      .   S
    N1     O160      2.33801      .   S
    Zr161  O162      1.04486      .   S
    N25    O162      2.07086      .   S
    Zr161  O163      1.04056      .   S
    N33    O163      2.06195      .   S
    Zr161  O164      1.04474      .   S
    N1     O164      2.07083      .   S
    Zr165  O166      1.04484      .   S
    N26    O166      2.07079  1_565   S
    Zr165  O167      1.04060      .   S
    N34    O167      2.06203      .   S
    Zr165  O168      1.04463      .   S
    N2     O168      2.07051      .   S
    Zr169  O170      1.04485      .   S
    N27    O170      2.07085      .   S
    Zr169  O171      1.04054      .   S
    N35    O171      2.06189      .   S
    Zr169  O172      1.04461      .   S
    N3     O172      2.07048      .   S
    Zr173  O174      1.15550      .   S
    N16    O174      2.36303      .   S
    Zr173  O175      1.17932      .   S
    N32    O175      2.40375      .   S
    Zr173  O176      1.13690      .   S
    N46    O176      2.33414      .   S
    Zr173  O177      1.15564      .   S
    N9     O177      2.36323      .   S
    Zr173  O178      1.14152      .   S
    N31    O178      2.34217      .   S
    Zr173  O179      1.14175      .   S
    N6     O179      2.34261      .   S
    Zr180  O181      1.14173      .   S
    N7     O181      2.34258      .   S
    Zr180  O182      1.17921      .   S
    N33    O182      2.40358      .   S
    Zr180  O183      1.14164      .   S
    N30    O183      2.34242      .   S
    Zr180  O184      1.15557      .   S
    N17    O184      2.36309      .   S
    Zr180  O185      1.13678      .   S
    N47    O185      2.33416      .   S
    Zr180  O186      1.15570      .   S
    N8     O186      2.36337      .   S
    Zr187  O188      1.15550      .   S
    N18    O188      2.36300      .   S
    Zr187  O189      1.17931      .   S
    N34    O189      2.40373      .   S
    Zr187  O190      1.13691      .   S
    N44    O190      2.33415      .   S
    Zr187  O191      1.14168      .   S
    N29    O191      2.34245      .   S
    Zr187  O192      1.15558      .   S
    N11    O192      2.36313      .   S
    Zr187  O193      1.14154      .   S
    N4     O193      2.34223      .   S
    Zr194  O195      1.14156      .   S
    N5     O195      2.34226      .   S
    Zr194  O196      1.14171      .   S
    N28    O196      2.34254      .   S
    Zr194  O197      1.13688      .   S
    N45    O197      2.33412      .   S
    Zr194  O198      1.17928      .   S
    N35    O198      2.40372      .   S
    Zr194  O199      1.15552      .   S
    N19    O199      2.36305      .   S
    Zr194  O200      1.15564      .   S
    N10    O200      2.36329      .   S
    Zr201  O202      1.04569      .   S
    N30    O202      2.07229      .   S
    Zr201  O203      1.04171      .   S
    N36    O203      2.06390  1_554   S
    Zr201  O204      1.04592      .   S
    N6     O204      2.07269      .   S
    Zr205  O206      1.04592      .   S
    N7     O206      2.07270      .   S
    Zr205  O207      1.04579      .   S
    N31    O207      2.07231  1_545   S
    Zr205  O208      1.04156      .   S
    N37    O208      2.06392  1_554   S
    Zr209  O210      1.04573      .   S
    N28    O210      2.07239      .   S
    Zr209  O211      1.04177      .   S
    N38    O211      2.06399  1_554   S
    Zr209  O212      1.04594      .   S
    N4     O212      2.07269      .   S
    Zr213  O214      1.04542      .   S
    N29    O214      2.07187  1_545   S
    Zr213  O215      1.04222      .   S
    N39    O215      2.06471  1_554   S
    Zr213  O216      1.04567      .   S
    N5     O216      2.07227      .   S
    Zr217  O218      1.13685  1_455   S
    N42    O218      2.33401      .   S
    Zr217  O219      1.13902      .   S
    N25    O219      2.33790      .   S
    Zr217  O220      1.17568      .   S
    N36    O220      2.39759      .   S
    Zr217  O221      1.15734  1_455   S
    N20    O221      2.36584      .   S
    Zr217  O222      1.15712  1_455   S
    N13    O222      2.36545      .   S
    Zr217  O223      1.13905      .   S
    N0     O223      2.33796      .   S
