# CIF file generated by openbabel 2.4.90, see http://openbabel.sf.net
data_I
_chemical_name_common ''
_cell_length_a 23.679
_cell_length_b 14.304
_cell_length_c 17.532
_cell_angle_alpha 89.972
_cell_angle_beta 90.004
_cell_angle_gamma 90.006
_space_group_name_H-M_alt 'P 1'
_space_group_name_Hall 'P 1'
loop_
    _symmetry_equiv_pos_as_xyz
    x,y,z
loop_
    _atom_site_label
    _atom_site_type_symbol
    _atom_site_fract_x
    _atom_site_fract_y
    _atom_site_fract_z
    _atom_site_occupancy
    H0      H    0.11042   0.63500   0.13395   1.000
    H1      H    0.61043   0.63560   0.13346   1.000
    H2      H    0.11470   0.62602   0.89823   1.000
    H3      H    0.61475   0.62584   0.89776   1.000
    H4      H    0.22011   0.62518   0.89629   1.000
    H5      H    0.72016   0.62501   0.89584   1.000
    H6      H    0.21596   0.63552   0.14274   1.000
    H7      H    0.71598   0.63592   0.14228   1.000
    H8      H    0.49553   0.30296   0.24951   1.000
    H9      H    0.99605   0.30271   0.24947   1.000
    H10     H    0.40396   0.71586   0.92390   1.000
    H11     H    0.90392   0.71618   0.92336   1.000
    H12     H    0.29868   0.72110   0.92140   1.000
    H13     H    0.79862   0.72120   0.92087   1.000
    H14     H    0.29929   0.54345   0.12115   1.000
    H15     H    0.79934   0.54383   0.12077   1.000
    H16     H    0.40482   0.54657   0.11554   1.000
    H17     H    0.90491   0.54711   0.11512   1.000
    H18     H    0.01426   0.48513   0.44150   1.000
    H19     H    0.51453   0.48528   0.44151   1.000
    H20     H    0.01778   0.59896   0.21300   1.000
    H21     H    0.51796   0.59904   0.21297   1.000
    H22     H    0.01409   0.69819   0.33250   1.000
    H23     H    0.51389   0.69827   0.33259   1.000
    H24     H    0.01800   0.64831   0.41947   1.000
    H25     H    0.51781   0.64840   0.41940   1.000
    H26     H    0.11041   0.36505   0.86600   1.000
    H27     H    0.61044   0.36439   0.86653   1.000
    H28     H    0.11473   0.37398   0.10174   1.000
    H29     H    0.61477   0.37419   0.10223   1.000
    H30     H    0.22014   0.37481   0.10368   1.000
    H31     H    0.72018   0.37500   0.10417   1.000
    H32     H    0.21595   0.36453   0.85723   1.000
    H33     H    0.71599   0.36407   0.85773   1.000
    H34     H    0.49603   0.69716   0.75061   1.000
    H35     H    0.99602   0.69729   0.75050   1.000
    H36     H    0.40398   0.28413   0.07607   1.000
    H37     H    0.90394   0.28379   0.07662   1.000
    H38     H    0.29869   0.27890   0.07857   1.000
    H39     H    0.79864   0.27878   0.07914   1.000
    H40     H    0.29930   0.45654   0.87882   1.000
    H41     H    0.79934   0.45615   0.87924   1.000
    H42     H    0.40483   0.45341   0.88442   1.000
    H43     H    0.90490   0.45287   0.88487   1.000
    H44     H    0.01426   0.51489   0.55843   1.000
    H45     H    0.51409   0.51486   0.55845   1.000
    H46     H    0.01778   0.40106   0.78690   1.000
    H47     H    0.51792   0.40094   0.78694   1.000
    H48     H    0.01408   0.30183   0.66739   1.000
    H49     H    0.51397   0.30180   0.66730   1.000
    H50     H    0.01799   0.35171   0.58050   1.000
    H51     H    0.51819   0.35172   0.58047   1.000
    H52     H    0.38911   0.86505   0.63409   1.000
    H53     H    0.88909   0.86472   0.63387   1.000
    H54     H    0.38486   0.87402   0.39837   1.000
    H55     H    0.88480   0.87469   0.39818   1.000
    H56     H    0.27942   0.87486   0.39639   1.000
    H57     H    0.77939   0.87518   0.39621   1.000
    H58     H    0.28357   0.86447   0.64280   1.000
    H59     H    0.78355   0.86423   0.64263   1.000
    H60     H    0.00318   0.19800   0.75003   1.000
    H61     H    0.50293   0.19799   0.74995   1.000
    H62     H    0.09549   0.78381   0.42455   1.000
    H63     H    0.59549   0.78369   0.42430   1.000
    H64     H    0.20077   0.77859   0.42186   1.000
    H65     H    0.70077   0.77863   0.42163   1.000
    H66     H    0.20039   0.95705   0.62096   1.000
    H67     H    0.70029   0.95693   0.62082   1.000
    H68     H    0.09483   0.95421   0.61536   1.000
    H69     H    0.59474   0.95393   0.61525   1.000
    H70     H    0.48631   0.01372   0.94131   1.000
    H71     H    0.98649   0.01369   0.94133   1.000
    H72     H    0.48159   0.90188   0.71233   1.000
    H73     H    0.98227   0.90181   0.71233   1.000
    H74     H    0.48559   0.80170   0.83123   1.000
    H75     H    0.98620   0.80170   0.83130   1.000
    H76     H    0.48239   0.85089   0.91847   1.000
    H77     H    0.98284   0.85093   0.91849   1.000
    H78     H    0.38896   0.13539   0.36586   1.000
    H79     H    0.88905   0.13530   0.36610   1.000
    H80     H    0.38475   0.12511   0.60154   1.000
    H81     H    0.88481   0.12536   0.60182   1.000
    H82     H    0.27933   0.12472   0.60356   1.000
    H83     H    0.77940   0.12491   0.60381   1.000
    H84     H    0.28341   0.13580   0.35710   1.000
    H85     H    0.78351   0.13581   0.35739   1.000
    H86     H    0.00318   0.80201   0.24996   1.000
    H87     H    0.50334   0.80205   0.25001   1.000
    H88     H    0.09543   0.21621   0.57546   1.000
    H89     H    0.59546   0.21634   0.57564   1.000
    H90     H    0.20072   0.22137   0.57810   1.000
    H91     H    0.70073   0.22148   0.57837   1.000
    C92     C    0.49750   0.12776   0.77200   1.000
    C93     C    0.12053   0.82194   0.46652   1.000
    C94     C    0.62050   0.82185   0.46630   1.000
    C95     C    0.17921   0.81984   0.46521   1.000
    H96     H    0.20025   0.04298   0.37900   1.000
    H97     H    0.70030   0.04304   0.37926   1.000
    H98     H    0.09468   0.04585   0.38462   1.000
    H99     H    0.59471   0.04571   0.38490   1.000
    H100    H    0.48615   0.98624   0.05872   1.000
    H101    H    0.98650   0.98631   0.05866   1.000
    H102    H    0.48217   0.09818   0.28771   1.000
    H103    H    0.98226   0.09819   0.28765   1.000
    H104    H    0.48569   0.19833   0.16871   1.000
    H105    H    0.98621   0.19829   0.16867   1.000
    H106    H    0.48233   0.14905   0.08152   1.000
    H107    H    0.98285   0.14907   0.08149   1.000
    C108    C    0.13673   0.63200   0.08295   1.000
    C109    C    0.63676   0.63242   0.08248   1.000
    C110    C    0.13900   0.62758   0.95105   1.000
    C111    C    0.63904   0.62762   0.95058   1.000
    C112    C    0.19767   0.62800   0.95049   1.000
    C113    C    0.69771   0.62799   0.95003   1.000
    C114    C    0.19539   0.63203   0.08721   1.000
    C115    C    0.69541   0.63235   0.08675   1.000
    C116    C    0.22731   0.63040   0.01979   1.000
    C117    C    0.72734   0.63056   0.01933   1.000
    C118    C    0.28970   0.63137   0.02070   1.000
    C119    C    0.78972   0.63159   0.02032   1.000
    C120    C    0.50148   0.37290   0.27183   1.000
    C121    C    0.00000   0.37270   0.27181   1.000
    N122    N    0.10883   0.62965   0.01604   1.000
    N123    N    0.60887   0.62996   0.01556   1.000
    N124    N    0.40815   0.62989   0.01914   1.000
    N125    N    0.90815   0.63030   0.01867   1.000
    N126    N    0.02773   0.64153   0.36272   1.000
    C127    C    0.37897   0.67800   0.96610   1.000
    C128    C    0.87894   0.67829   0.96558   1.000
    C129    C    0.32029   0.68004   0.96487   1.000
    C130    C    0.82026   0.68024   0.96436   1.000
    C131    C    0.32063   0.58327   0.07668   1.000
    C132    C    0.82066   0.58362   0.07627   1.000
    C133    C    0.37931   0.58405   0.07373   1.000
    C134    C    0.87935   0.58449   0.07331   1.000
    C135    C    0.50386   0.38635   0.35065   1.000
    C136    C    0.00000   0.38614   0.35060   1.000
    C137    C    0.01227   0.47577   0.37999   1.000
    C138    C    0.51236   0.47594   0.37996   1.000
    C139    C    0.01457   0.53962   0.25193   1.000
    C140    C    0.51460   0.53974   0.25190   1.000
    C141    C    0.01750   0.55400   0.33153   1.000
    C142    C    0.51752   0.55416   0.33149   1.000
    C143    C    0.00744   0.44915   0.22251   1.000
    C144    C    0.50727   0.44929   0.22250   1.000
    C145    C    0.13673   0.36804   0.91702   1.000
    C146    C    0.63676   0.36758   0.91751   1.000
    C147    C    0.13903   0.37244   0.04892   1.000
    C148    C    0.63906   0.37239   0.04941   1.000
    C149    C    0.19770   0.37201   0.04948   1.000
    C150    C    0.69773   0.37201   0.04990   1.000
    C151    C    0.19539   0.36801   0.91276   1.000
    C152    C    0.69542   0.36765   0.91325   1.000
    C153    C    0.22732   0.36962   0.98018   1.000
    C154    C    0.72734   0.36943   0.98068   1.000
    C155    C    0.28971   0.36863   0.97919   1.000
    C156    C    0.78972   0.36839   0.97969   1.000
    C157    C    0.50175   0.62719   0.72825   1.000
    C158    C    0.00000   0.62731   0.72816   1.000
    C159    C    0.37898   0.32199   0.03387   1.000
    C160    C    0.87896   0.32169   0.03441   1.000
    C161    C    0.32030   0.31995   0.03510   1.000
    C162    C    0.82028   0.31974   0.03565   1.000
    C163    C    0.32063   0.41672   0.92329   1.000
    C164    C    0.82066   0.41636   0.92374   1.000
    C165    C    0.37932   0.41593   0.92624   1.000
    C166    C    0.87935   0.41549   0.92668   1.000
    C167    C    0.50389   0.61382   0.64943   1.000
    C168    C    0.00000   0.61387   0.64930   1.000
    C169    C    0.01226   0.52424   0.61998   1.000
    C170    C    0.51217   0.52421   0.62000   1.000
    C171    C    0.01456   0.46040   0.74804   1.000
    C172    C    0.51459   0.46029   0.74807   1.000
    C173    C    0.01749   0.44602   0.66844   1.000
    C174    C    0.51748   0.44596   0.66845   1.000
    C175    C    0.00742   0.55086   0.77746   1.000
    C176    C    0.50739   0.55073   0.77753   1.000
    C177    C    0.36281   0.86807   0.58308   1.000
    C178    C    0.86279   0.86799   0.58288   1.000
    C179    C    0.36054   0.87251   0.45117   1.000
    C180    C    0.86051   0.87287   0.45099   1.000
    C181    C    0.30187   0.87205   0.45060   1.000
    C182    C    0.80184   0.87230   0.45040   1.000
    C183    C    0.30415   0.86800   0.58731   1.000
    C184    C    0.80413   0.86791   0.58711   1.000
    C185    C    0.27223   0.86963   0.51980   1.000
    C186    C    0.77220   0.86967   0.51969   1.000
    C187    C    0.20985   0.86871   0.52090   1.000
    C188    C    0.70981   0.86868   0.52072   1.000
    C189    C    0.99781   0.12775   0.77205   1.000
    C190    C    0.67918   0.81982   0.46499   1.000
    C191    C    0.17899   0.91709   0.57665   1.000
    C192    C    0.67892   0.91697   0.57649   1.000
    C193    C    0.12031   0.91644   0.57374   1.000
    C194    C    0.62023   0.91624   0.57358   1.000
    C195    C    0.99602   0.11359   0.85084   1.000
    C196    C    0.49586   0.11359   0.85079   1.000
    C197    C    0.48787   0.02367   0.87978   1.000
    C198    C    0.98811   0.02365   0.87981   1.000
    C199    C    0.48491   0.96095   0.75143   1.000
    C200    C    0.98548   0.96089   0.75144   1.000
    C201    C    0.48238   0.94589   0.83098   1.000
    C202    C    0.98278   0.94585   0.83098   1.000
    C203    C    0.49178   0.05170   0.72237   1.000
    C204    C    0.99237   0.05165   0.72240   1.000
    C205    C    0.36267   0.13198   0.41686   1.000
    C206    C    0.86276   0.13205   0.41712   1.000
    C207    C    0.36043   0.12697   0.54875   1.000
    C208    C    0.86051   0.12719   0.54901   1.000
    C209    C    0.30176   0.12761   0.54935   1.000
    C210    C    0.80184   0.12779   0.54960   1.000
    C211    C    0.30402   0.13207   0.41265   1.000
    C212    C    0.80410   0.13215   0.41290   1.000
    C213    C    0.27212   0.13029   0.48000   1.000
    C214    C    0.77219   0.13041   0.48033   1.000
    C215    C    0.20974   0.13129   0.47907   1.000
    C216    C    0.70979   0.13137   0.47932   1.000
    C217    C    0.99781   0.87225   0.22793   1.000
    C218    C    0.49787   0.87227   0.22798   1.000
    C219    C    0.12046   0.17809   0.53348   1.000
    C220    C    0.62047   0.17813   0.53371   1.000
    C221    C    0.17913   0.18015   0.53479   1.000
    C222    C    0.67916   0.18022   0.53502   1.000
    C223    C    0.17887   0.08294   0.42330   1.000
    C224    C    0.67892   0.08298   0.42358   1.000
    C225    C    0.12019   0.08361   0.42620   1.000
    C226    C    0.62023   0.08357   0.42653   1.000
    C227    C    0.99601   0.88641   0.14915   1.000
    C228    C    0.49600   0.88642   0.14920   1.000
    C229    C    0.48792   0.97632   0.12024   1.000
    C230    C    0.98811   0.97635   0.12018   1.000
    C231    C    0.48541   0.03911   0.24860   1.000
    C232    C    0.98548   0.03911   0.24854   1.000
    C233    C    0.48258   0.05412   0.16900   1.000
    C234    C    0.98279   0.05415   0.16900   1.000
    C235    C    0.49235   0.94835   0.27763   1.000
    C236    C    0.99236   0.94835   0.27758   1.000
    N237    N    0.52775   0.64172   0.36270   1.000
    N238    N    0.10884   0.37038   0.98393   1.000
    N239    N    0.60888   0.37005   0.98443   1.000
    N240    N    0.40816   0.37010   0.98082   1.000
    N241    N    0.90815   0.36968   0.98132   1.000
    N242    N    0.02772   0.35849   0.63725   1.000
    N243    N    0.52778   0.35844   0.63726   1.000
    N244    N    0.39071   0.87046   0.51617   1.000
    N245    N    0.89070   0.87064   0.51597   1.000
    N246    N    0.09142   0.87036   0.51937   1.000
    N247    N    0.59136   0.87018   0.51918   1.000
    N248    N    0.47230   0.85811   0.86188   1.000
    N249    N    0.97272   0.85806   0.86180   1.000
    N250    N    0.39059   0.12923   0.48375   1.000
    N251    N    0.89068   0.12940   0.48400   1.000
    N252    N    0.09133   0.12968   0.48062   1.000
    N253    N    0.59134   0.12965   0.48090   1.000
    N254    N    0.47236   0.14185   0.13816   1.000
    N255    N    0.97273   0.14194   0.13809   1.000
loop_
    _geom_bond_atom_site_label_1
    _geom_bond_atom_site_label_2
    _geom_bond_distance
    _geom_bond_site_symmetry_2
    _ccdc_geom_bond_type
    N123   C109      1.34675      .   S
    N123   C111      1.34516  1_554   S
    N122   C108      1.34666      .   S
    N122   C110      1.34525  1_554   S
    N125   C134      1.34592      .   S
    N125   C128      1.34726  1_554   S
    N124   C133      1.34590      .   S
    N124   C127      1.34731  1_554   S
    C117   C119      1.47736      .   S
    C117   C115      1.40332      .   S
    C117   C113      1.40343  1_554   S
    C116   C118      1.47753      .   S
    C116   C114      1.40333      .   S
    C116   C112      1.40349  1_554   S
    C119   C132      1.40325      .   S
    C119   C130      1.40327  1_554   S
    C118   C131      1.40428      .   S
    C118   C129      1.40235  1_554   S
    C159   C161      1.38996      .   S
    C159   H36       1.09109      .   S
    C159   N240      1.34727  1_554   S
    C160   C162      1.38995      .   S
    C160   H37       1.09126      .   S
    C160   N241      1.34705  1_554   S
    C161   H38       1.08950      .   S
    C161   C155      1.40349  1_554   S
    C162   H39       1.08945      .   S
    C162   C156      1.40348  1_554   S
    C147   C149      1.38932      .   S
    C147   H28       1.09051      .   S
    C147   N238      1.34540  1_554   S
    C148   C150      1.38926      .   S
    C148   H29       1.09048      .   S
    C148   N239      1.34523  1_554   S
    C149   H30       1.08949      .   S
    C149   C153      1.40335  1_554   S
    C150   H31       1.09072      .   S
    C150   C154      1.40214  1_554   S
    H101   C230      1.08852      .   S
    H100   C229      1.08861      .   S
    C134   C132      1.39063      .   S
    C134   H17       1.09045      .   S
    C133   C131      1.39071      .   S
    C133   H16       1.09040      .   S
    C132   H15       1.08948      .   S
    C131   H14       1.08954      .   S
    H107   N255      1.02590      .   S
    H106   N254      1.02581      .   S
    C109   C115      1.39093      .   S
    C109   H1        1.09068      .   S
    C108   C114      1.39096      .   S
    C108   H0        1.09065      .   S
    C115   H7        1.08978      .   S
    C114   H6        1.08974      .   S
    C230   C227      1.39551      .   S
    C230   C234      1.40992  1_565   S
    C229   C228      1.39552      .   S
    C229   C233      1.40937  1_565   S
    N255   H105      1.01956      .   S
    N255   C234      1.38804      .   S
    N254   H104      1.01950      .   S
    N254   C233      1.38745      .   S
    C227   C217      1.39649      .   S
    C228   C218      1.39651      .   S
    C234   C232      1.41233      .   S
    C233   C231      1.41346      .   S
    H21    C140      1.09129      .   S
    H20    C139      1.09153      .   S
    C144   C140      1.40367      .   S
    C144   C120      1.39993      .   S
    C143   C139      1.40351      .   S
    C143   C121      1.40463      .   S
    C217   H86       1.08375  1_655   S
    C217   C236      1.40003      .   S
    C218   H87       1.08376      .   S
    C218   C235      1.40004      .   S
    C232   C236      1.40379  1_545   S
    C232   H103      1.09120      .   S
    C231   C235      1.40377  1_545   S
    C231   H102      1.09117      .   S
    H9     C121      1.07917  1_655   S
    H8     C120      1.08367      .   S
    C140   C142      1.41231      .   S
    C139   C141      1.41242      .   S
    C121   C136      1.39476      .   S
    C120   C135      1.39641      .   S
    C142   N237      1.38831      .   S
    C142   C138      1.40986      .   S
    C141   N126      1.38775      .   S
    C141   C137      1.41005      .   S
    H22    N126      1.02048      .   S
    H23    N237      1.01983      .   S
    C136   C137      1.41216      .   S
    C135   C138      1.39559      .   S
    H84    C211      1.09049      .   S
    H85    C212      1.08968      .   S
    N237   H25       1.02605      .   S
    N126   H24       1.02594      .   S
    H78    C205      1.09058      .   S
    H79    C206      1.09087      .   S
    H96    C223      1.08939      .   S
    H97    C224      1.08952      .   S
    C138   H19       1.08859      .   S
    C137   H18       1.08775      .   S
    H98    C225      1.09000      .   S
    H99    C226      1.09139      .   S
    H57    C182      1.08931      .   S
    H56    C181      1.08959      .   S
    H55    C180      1.09032      .   S
    H54    C179      1.09039      .   S
    C211   C205      1.39087      .   S
    C211   C213      1.40192      .   S
    C212   C206      1.39093      .   S
    C212   C214      1.40332      .   S
    C205   N250      1.34675      .   S
    C206   N251      1.34657      .   S
    H65    C190      1.08944      .   S
    H64    C95       1.08953      .   S
    C223   C225      1.39055      .   S
    C223   C215      1.40324      .   S
    C224   C226      1.39071      .   S
    C224   C216      1.40317      .   S
    H63    C94       1.09136      .   S
    H62    C93       1.09119      .   S
    C225   N252      1.34626      .   S
    C226   N253      1.34597      .   S
    C182   C180      1.38943      .   S
    C182   C186      1.40342      .   S
    C181   C179      1.38937      .   S
    C181   C185      1.40196      .   S
    C180   N245      1.34521      .   S
    C179   N244      1.34531      .   S
    C190   C94       1.39005      .   S
    C190   C188      1.40332      .   S
    C95    C93       1.38993      .   S
    C95    C187      1.40312      .   S
    C94    N247      1.34696      .   S
    C93    N246      1.34697      .   S
    C215   C213      1.47726      .   S
    C215   C221      1.40324      .   S
    C216   C214      1.47764      .   S
    C216   C222      1.40322      .   S
    C213   C209      1.40435      .   S
    C214   C210      1.40321      .   S
    N252   C219      1.34701      .   S
    N253   C220      1.34699      .   S
    N250   C207      1.34527      .   S
    N251   C208      1.34553      .   S
    N245   C178      1.34696      .   S
    N244   C177      1.34683      .   S
    N247   C194      1.34589      .   S
    N246   C193      1.34582      .   S
    C186   C188      1.47765      .   S
    C186   C184      1.40327      .   S
    C185   C187      1.47742      .   S
    C185   C183      1.40445      .   S
    C188   C192      1.40321      .   S
    C187   C191      1.40316      .   S
    C219   C221      1.38989      .   S
    C219   H88       1.09123      .   S
    C220   C222      1.39004      .   S
    C220   H89       1.09117      .   S
    C221   H90       1.08895      .   S
    C222   H91       1.08954      .   S
    C207   C209      1.38934      .   S
    C207   H80       1.09028      .   S
    C208   C210      1.38941      .   S
    C208   H81       1.09041      .   S
    C209   H82       1.08956      .   S
    C210   H83       1.08957      .   S
    H44    C169      1.08845      .   S
    H45    C170      1.08836      .   S
    C194   C192      1.39072      .   S
    C194   H69       1.09049      .   S
    C193   C191      1.39064      .   S
    C193   H68       1.09044      .   S
    C192   H67       1.08952      .   S
    C191   H66       1.08957      .   S
    H51    N243      1.02574      .   S
    H50    N242      1.02590      .   S
    C178   C184      1.39095      .   S
    C178   H53       1.09052      .   S
    C177   C183      1.39088      .   S
    C177   H52       1.09061      .   S
    C184   H59       1.08977      .   S
    C183   H58       1.08928      .   S
    C169   C168      1.41168      .   S
    C169   C173      1.41005      .   S
    C170   C167      1.39595      .   S
    C170   C174      1.41030      .   S
    N242   H48       1.01979      .   S
    N242   C173      1.38777      .   S
    N243   H49       1.01986      .   S
    N243   C174      1.38796      .   S
    C168   C158      1.39598      .   S
    C167   C157      1.39605      .   S
    C173   C171      1.41243      .   S
    C174   C172      1.41263      .   S
    H72    C199      1.09112      .   S
    H73    C200      1.09118      .   S
    C203   C199      1.40370  1_545   S
    C203   C92       1.40007      .   S
    C204   C200      1.40380  1_545   S
    C204   C189      1.40000      .   S
    C158   H35       1.07918  1_455   S
    C158   C175      1.40458      .   S
    C157   H34       1.08362      .   S
    C157   C176      1.39984      .   S
    C171   C175      1.40351      .   S
    C171   H46       1.09077      .   S
    C172   C176      1.40351      .   S
    C172   H47       1.09122      .   S
    H61    C92       1.08377      .   S
    H60    C189      1.08372  1_455   S
    C199   C201      1.41237      .   S
    C200   C202      1.41234      .   S
    C92    C196      1.39659      .   S
    C189   C195      1.39667      .   S
    C201   N248      1.38784      .   S
    C201   C197      1.40987  1_565   S
    C202   N249      1.38746      .   S
    C202   C198      1.41000  1_565   S
    H74    N248      1.01947      .   S
    H75    N249      1.01889      .   S
    C196   C197      1.39559      .   S
    C195   C198      1.39552      .   S
    H32    C151      1.08974      .   S
    H33    C152      1.08970      .   S
    N249   H77       1.02737      .   S
    N248   H76       1.02568      .   S
    H26    C145      1.09090      .   S
    H27    C146      1.09059      .   S
    H40    C163      1.08953      .   S
    H41    C164      1.08952      .   S
    C197   H70       1.08865      .   S
    C198   H71       1.08853      .   S
    H42    C165      1.09048      .   S
    H43    C166      1.09039      .   S
    H5     C113      1.08956      .   S
    H4     C112      1.08952      .   S
    H3     C111      1.09037      .   S
    H2     C110      1.09051      .   S
    C151   C145      1.39097      .   S
    C151   C153      1.40332      .   S
    C152   C146      1.39093      .   S
    C152   C154      1.40338      .   S
    C145   N238      1.34667      .   S
    C146   N239      1.34682      .   S
    H13    C130      1.08948      .   S
    H12    C129      1.08952      .   S
    C163   C165      1.39070      .   S
    C163   C155      1.40327      .   S
    H11    C128      1.09127      .   S
    C164   C166      1.39061      .   S
    C164   C156      1.40321      .   S
    H10    C127      1.09115      .   S
    C165   N240      1.34578      .   S
    C166   N241      1.34601      .   S
    C113   C111      1.38927      .   S
    C112   C110      1.38929      .   S
    C130   C128      1.38995      .   S
    C129   C127      1.38996      .   S
    C155   C153      1.47755      .   S
    C156   C154      1.47737      .   S
