# CIF file generated by openbabel 2.4.90, see http://openbabel.sf.net
data_I
_chemical_name_common ''
_cell_length_a 23.679
_cell_length_b 14.304
_cell_length_c 17.532
_cell_angle_alpha 89.972
_cell_angle_beta 90.004
_cell_angle_gamma 90.006
_space_group_name_H-M_alt 'P 1'
_space_group_name_Hall 'P 1'
loop_
    _symmetry_equiv_pos_as_xyz
    x,y,z
loop_
    _atom_site_label
    _atom_site_type_symbol
    _atom_site_fract_x
    _atom_site_fract_y
    _atom_site_fract_z
    _atom_site_occupancy
    Cd0     Cd   0.50858   0.63821   0.01531   1.000
    Cd1     Cd   0.00854   0.36175   0.98471   1.000
    Cd2     Cd   0.50859   0.36176   0.98468   1.000
    Cd3     Cd   0.49102   0.86219   0.51571   1.000
    Cd4     Cd   0.99108   0.86228   0.51561   1.000
    Cd5     Cd   0.49096   0.13787   0.48434   1.000
    Cd6     Cd   0.99103   0.13776   0.48437   1.000
    H7      H    0.11042   0.63500   0.13395   1.000
    H8      H    0.61043   0.63560   0.13346   1.000
    H9      H    0.11470   0.62602   0.89823   1.000
    H10     H    0.61475   0.62584   0.89776   1.000
    H11     H    0.22011   0.62518   0.89629   1.000
    H12     H    0.72016   0.62501   0.89584   1.000
    H13     H    0.21596   0.63552   0.14274   1.000
    H14     H    0.71598   0.63592   0.14228   1.000
    H15     H    0.49553   0.30296   0.24951   1.000
    H16     H    0.99605   0.30271   0.24947   1.000
    H17     H    0.40396   0.71586   0.92390   1.000
    H18     H    0.90392   0.71618   0.92336   1.000
    H19     H    0.29868   0.72110   0.92140   1.000
    H20     H    0.79862   0.72120   0.92087   1.000
    H21     H    0.29929   0.54345   0.12115   1.000
    H22     H    0.79934   0.54383   0.12077   1.000
    H23     H    0.40482   0.54657   0.11554   1.000
    H24     H    0.90491   0.54711   0.11512   1.000
    H25     H    0.01426   0.48513   0.44150   1.000
    H26     H    0.51453   0.48528   0.44151   1.000
    H27     H    0.01778   0.59896   0.21300   1.000
    H28     H    0.51796   0.59904   0.21297   1.000
    H29     H    0.01409   0.69819   0.33250   1.000
    H30     H    0.51389   0.69827   0.33259   1.000
    H31     H    0.01800   0.64831   0.41947   1.000
    Cd32    Cd   0.00854   0.63826   0.01526   1.000
    H33     H    0.51781   0.64840   0.41940   1.000
    H34     H    0.11041   0.36505   0.86600   1.000
    H35     H    0.61044   0.36439   0.86653   1.000
    H36     H    0.11473   0.37398   0.10174   1.000
    H37     H    0.61477   0.37419   0.10223   1.000
    H38     H    0.22014   0.37481   0.10368   1.000
    H39     H    0.72018   0.37500   0.10417   1.000
    H40     H    0.21595   0.36453   0.85723   1.000
    H41     H    0.71599   0.36407   0.85773   1.000
    H42     H    0.49603   0.69716   0.75061   1.000
    H43     H    0.99602   0.69729   0.75050   1.000
    H44     H    0.40398   0.28413   0.07607   1.000
    H45     H    0.90394   0.28379   0.07662   1.000
    H46     H    0.29869   0.27890   0.07857   1.000
    H47     H    0.79864   0.27878   0.07914   1.000
    H48     H    0.29930   0.45654   0.87882   1.000
    H49     H    0.79934   0.45615   0.87924   1.000
    H50     H    0.40483   0.45341   0.88442   1.000
    H51     H    0.90490   0.45287   0.88487   1.000
    H52     H    0.01426   0.51489   0.55843   1.000
    H53     H    0.51409   0.51486   0.55845   1.000
    H54     H    0.01778   0.40106   0.78690   1.000
    H55     H    0.51792   0.40094   0.78694   1.000
    H56     H    0.01408   0.30183   0.66739   1.000
    H57     H    0.51397   0.30180   0.66730   1.000
    H58     H    0.01799   0.35171   0.58050   1.000
    H59     H    0.51819   0.35172   0.58047   1.000
    H60     H    0.38911   0.86505   0.63409   1.000
    H61     H    0.88909   0.86472   0.63387   1.000
    H62     H    0.38486   0.87402   0.39837   1.000
    H63     H    0.88480   0.87469   0.39818   1.000
    H64     H    0.27942   0.87486   0.39639   1.000
    H65     H    0.77939   0.87518   0.39621   1.000
    H66     H    0.28357   0.86447   0.64280   1.000
    H67     H    0.78355   0.86423   0.64263   1.000
    H68     H    0.00318   0.19800   0.75003   1.000
    H69     H    0.50293   0.19799   0.74995   1.000
    H70     H    0.09549   0.78381   0.42455   1.000
    H71     H    0.59549   0.78369   0.42430   1.000
    H72     H    0.20077   0.77859   0.42186   1.000
    H73     H    0.70077   0.77863   0.42163   1.000
    H74     H    0.20039   0.95705   0.62096   1.000
    H75     H    0.70029   0.95693   0.62082   1.000
    H76     H    0.09483   0.95421   0.61536   1.000
    H77     H    0.59474   0.95393   0.61525   1.000
    H78     H    0.48631   0.01372   0.94131   1.000
    H79     H    0.98649   0.01369   0.94133   1.000
    H80     H    0.48159   0.90188   0.71233   1.000
    H81     H    0.98227   0.90181   0.71233   1.000
    H82     H    0.48559   0.80170   0.83123   1.000
    H83     H    0.98620   0.80170   0.83130   1.000
    H84     H    0.48239   0.85089   0.91847   1.000
    H85     H    0.98284   0.85093   0.91849   1.000
    H86     H    0.38896   0.13539   0.36586   1.000
    H87     H    0.88905   0.13530   0.36610   1.000
    H88     H    0.38475   0.12511   0.60154   1.000
    H89     H    0.88481   0.12536   0.60182   1.000
    H90     H    0.27933   0.12472   0.60356   1.000
    H91     H    0.77940   0.12491   0.60381   1.000
    H92     H    0.28341   0.13580   0.35710   1.000
    H93     H    0.78351   0.13581   0.35739   1.000
    H94     H    0.00318   0.80201   0.24996   1.000
    H95     H    0.50334   0.80205   0.25001   1.000
    H96     H    0.09543   0.21621   0.57546   1.000
    H97     H    0.59546   0.21634   0.57564   1.000
    H98     H    0.20072   0.22137   0.57810   1.000
    H99     H    0.70073   0.22148   0.57837   1.000
    C100    C    0.49750   0.12776   0.77200   1.000
    C101    C    0.12053   0.82194   0.46652   1.000
    C102    C    0.62050   0.82185   0.46630   1.000
    C103    C    0.17921   0.81984   0.46521   1.000
    H104    H    0.20025   0.04298   0.37900   1.000
    H105    H    0.70030   0.04304   0.37926   1.000
    H106    H    0.09468   0.04585   0.38462   1.000
    H107    H    0.59471   0.04571   0.38490   1.000
    H108    H    0.48615   0.98624   0.05872   1.000
    H109    H    0.98650   0.98631   0.05866   1.000
    H110    H    0.48217   0.09818   0.28771   1.000
    H111    H    0.98226   0.09819   0.28765   1.000
    H112    H    0.48569   0.19833   0.16871   1.000
    H113    H    0.98621   0.19829   0.16867   1.000
    H114    H    0.48233   0.14905   0.08152   1.000
    H115    H    0.98285   0.14907   0.08149   1.000
    C116    C    0.13673   0.63200   0.08295   1.000
    C117    C    0.63676   0.63242   0.08248   1.000
    C118    C    0.13900   0.62758   0.95105   1.000
    C119    C    0.63904   0.62762   0.95058   1.000
    C120    C    0.19767   0.62800   0.95049   1.000
    C121    C    0.69771   0.62799   0.95003   1.000
    C122    C    0.19539   0.63203   0.08721   1.000
    C123    C    0.69541   0.63235   0.08675   1.000
    C124    C    0.22731   0.63040   0.01979   1.000
    C125    C    0.72734   0.63056   0.01933   1.000
    C126    C    0.00706   0.43089   0.13847   1.000
    C127    C    0.50696   0.43097   0.13846   1.000
    C128    C    0.28970   0.63137   0.02070   1.000
    C129    C    0.78972   0.63159   0.02032   1.000
    C130    C    0.50148   0.37290   0.27183   1.000
    C131    C    0.00000   0.37270   0.27181   1.000
    N132    N    0.10883   0.62965   0.01604   1.000
    N133    N    0.60887   0.62996   0.01556   1.000
    N134    N    0.40815   0.62989   0.01914   1.000
    N135    N    0.90815   0.63030   0.01867   1.000
    N136    N    0.02773   0.64153   0.36272   1.000
    C137    C    0.37897   0.67800   0.96610   1.000
    C138    C    0.87894   0.67829   0.96558   1.000
    C139    C    0.32029   0.68004   0.96487   1.000
    C140    C    0.82026   0.68024   0.96436   1.000
    C141    C    0.49772   0.30379   0.40271   1.000
    C142    C    0.99768   0.30355   0.40263   1.000
    C143    C    0.32063   0.58327   0.07668   1.000
    C144    C    0.82066   0.58362   0.07627   1.000
    C145    C    0.37931   0.58405   0.07373   1.000
    C146    C    0.87935   0.58449   0.07331   1.000
    C147    C    0.50386   0.38635   0.35065   1.000
    C148    C    0.00000   0.38614   0.35060   1.000
    C149    C    0.01227   0.47577   0.37999   1.000
    C150    C    0.51236   0.47594   0.37996   1.000
    C151    C    0.01457   0.53962   0.25193   1.000
    C152    C    0.51460   0.53974   0.25190   1.000
    C153    C    0.01750   0.55400   0.33153   1.000
    C154    C    0.51752   0.55416   0.33149   1.000
    C155    C    0.00744   0.44915   0.22251   1.000
    C156    C    0.50727   0.44929   0.22250   1.000
    C157    C    0.13673   0.36804   0.91702   1.000
    C158    C    0.63676   0.36758   0.91751   1.000
    C159    C    0.13903   0.37244   0.04892   1.000
    C160    C    0.63906   0.37239   0.04941   1.000
    C161    C    0.19770   0.37201   0.04948   1.000
    C162    C    0.69773   0.37201   0.04990   1.000
    C163    C    0.19539   0.36801   0.91276   1.000
    C164    C    0.69542   0.36765   0.91325   1.000
    C165    C    0.22732   0.36962   0.98018   1.000
    C166    C    0.72734   0.36943   0.98068   1.000
    C167    C    0.00705   0.56911   0.86150   1.000
    C168    C    0.50701   0.56901   0.86156   1.000
    C169    C    0.28971   0.36863   0.97919   1.000
    C170    C    0.78972   0.36839   0.97969   1.000
    C171    C    0.50175   0.62719   0.72825   1.000
    C172    C    0.00000   0.62731   0.72816   1.000
    C173    C    0.37898   0.32199   0.03387   1.000
    C174    C    0.87896   0.32169   0.03441   1.000
    C175    C    0.32030   0.31995   0.03510   1.000
    C176    C    0.82028   0.31974   0.03565   1.000
    C177    C    0.49765   0.69659   0.59760   1.000
    C178    C    0.99768   0.69647   0.59733   1.000
    C179    C    0.32063   0.41672   0.92329   1.000
    C180    C    0.82066   0.41636   0.92374   1.000
    C181    C    0.37932   0.41593   0.92624   1.000
    C182    C    0.87935   0.41549   0.92668   1.000
    C183    C    0.50389   0.61382   0.64943   1.000
    C184    C    0.00000   0.61387   0.64930   1.000
    C185    C    0.01226   0.52424   0.61998   1.000
    C186    C    0.51217   0.52421   0.62000   1.000
    C187    C    0.01456   0.46040   0.74804   1.000
    C188    C    0.51459   0.46029   0.74807   1.000
    C189    C    0.01749   0.44602   0.66844   1.000
    C190    C    0.51748   0.44596   0.66845   1.000
    C191    C    0.00742   0.55086   0.77746   1.000
    C192    C    0.50739   0.55073   0.77753   1.000
    C193    C    0.36281   0.86807   0.58308   1.000
    C194    C    0.86279   0.86799   0.58288   1.000
    C195    C    0.36054   0.87251   0.45117   1.000
    C196    C    0.86051   0.87287   0.45099   1.000
    C197    C    0.30187   0.87205   0.45060   1.000
    C198    C    0.80184   0.87230   0.45040   1.000
    C199    C    0.30415   0.86800   0.58731   1.000
    C200    C    0.80413   0.86791   0.58711   1.000
    C201    C    0.27223   0.86963   0.51980   1.000
    C202    C    0.77220   0.86967   0.51969   1.000
    C203    C    0.49190   0.07060   0.63841   1.000
    C204    C    0.99277   0.07057   0.63840   1.000
    C205    C    0.20985   0.86871   0.52090   1.000
    C206    C    0.70981   0.86868   0.52072   1.000
    C207    C    0.99781   0.12775   0.77205   1.000
    C208    C    0.67918   0.81982   0.46499   1.000
    C209    C    0.00227   0.19574   0.90326   1.000
    C210    C    0.50224   0.19571   0.90321   1.000
    C211    C    0.17899   0.91709   0.57665   1.000
    C212    C    0.67892   0.91697   0.57649   1.000
    C213    C    0.12031   0.91644   0.57374   1.000
    C214    C    0.62023   0.91624   0.57358   1.000
    C215    C    0.99602   0.11359   0.85084   1.000
    C216    C    0.49586   0.11359   0.85079   1.000
    C217    C    0.48787   0.02367   0.87978   1.000
    C218    C    0.98811   0.02365   0.87981   1.000
    C219    C    0.48491   0.96095   0.75143   1.000
    C220    C    0.98548   0.96089   0.75144   1.000
    C221    C    0.48238   0.94589   0.83098   1.000
    C222    C    0.98278   0.94585   0.83098   1.000
    C223    C    0.49178   0.05170   0.72237   1.000
    C224    C    0.99237   0.05165   0.72240   1.000
    C225    C    0.36267   0.13198   0.41686   1.000
    C226    C    0.86276   0.13205   0.41712   1.000
    C227    C    0.36043   0.12697   0.54875   1.000
    C228    C    0.86051   0.12719   0.54901   1.000
    C229    C    0.30176   0.12761   0.54935   1.000
    C230    C    0.80184   0.12779   0.54960   1.000
    C231    C    0.30402   0.13207   0.41265   1.000
    C232    C    0.80410   0.13215   0.41290   1.000
    C233    C    0.27212   0.13029   0.48000   1.000
    C234    C    0.77219   0.13041   0.48033   1.000
    C235    C    0.49278   0.92943   0.36158   1.000
    C236    C    0.99277   0.92943   0.36154   1.000
    C237    C    0.20974   0.13129   0.47907   1.000
    C238    C    0.70979   0.13137   0.47932   1.000
    C239    C    0.99781   0.87225   0.22793   1.000
    C240    C    0.49787   0.87227   0.22798   1.000
    C241    C    0.12046   0.17809   0.53348   1.000
    C242    C    0.62047   0.17813   0.53371   1.000
    C243    C    0.17913   0.18015   0.53479   1.000
    C244    C    0.67916   0.18022   0.53502   1.000
    C245    C    0.00227   0.80426   0.09673   1.000
    C246    C    0.50228   0.80429   0.09677   1.000
    C247    C    0.17887   0.08294   0.42330   1.000
    C248    C    0.67892   0.08298   0.42358   1.000
    C249    C    0.12019   0.08361   0.42620   1.000
    C250    C    0.62023   0.08357   0.42653   1.000
    C251    C    0.99601   0.88641   0.14915   1.000
    C252    C    0.49600   0.88642   0.14920   1.000
    C253    C    0.48792   0.97632   0.12024   1.000
    C254    C    0.98811   0.97635   0.12018   1.000
    C255    C    0.48541   0.03911   0.24860   1.000
    C256    C    0.98548   0.03911   0.24854   1.000
    C257    C    0.48258   0.05412   0.16900   1.000
    C258    C    0.98279   0.05415   0.16900   1.000
    C259    C    0.49235   0.94835   0.27763   1.000
    C260    C    0.99236   0.94835   0.27758   1.000
    N261    N    0.52775   0.64172   0.36270   1.000
    N262    N    0.10884   0.37038   0.98393   1.000
    N263    N    0.60888   0.37005   0.98443   1.000
    N264    N    0.40816   0.37010   0.98082   1.000
    N265    N    0.90815   0.36968   0.98132   1.000
    N266    N    0.02772   0.35849   0.63725   1.000
    N267    N    0.52778   0.35844   0.63726   1.000
    N268    N    0.39071   0.87046   0.51617   1.000
    N269    N    0.89070   0.87064   0.51597   1.000
    N270    N    0.09142   0.87036   0.51937   1.000
    N271    N    0.59136   0.87018   0.51918   1.000
    N272    N    0.47230   0.85811   0.86188   1.000
    N273    N    0.97272   0.85806   0.86180   1.000
    N274    N    0.39059   0.12923   0.48375   1.000
    N275    N    0.89068   0.12940   0.48400   1.000
    N276    N    0.09133   0.12968   0.48062   1.000
    N277    N    0.59134   0.12965   0.48090   1.000
    N278    N    0.47236   0.14185   0.13816   1.000
    N279    N    0.97273   0.14194   0.13809   1.000
    O280    O    0.00978   0.49772   0.09036   1.000
    O281    O    0.51089   0.49767   0.09037   1.000
    O282    O    0.00504   0.34543   0.11649   1.000
    O283    O    0.50387   0.34560   0.11640   1.000
    O284    O    0.50607   0.31285   0.47392   1.000
    O285    O    0.00000   0.31287   0.47404   1.000
    O286    O    0.48452   0.22486   0.37249   1.000
    O287    O    0.98543   0.22431   0.37220   1.000
    O288    O    0.00977   0.50228   0.90961   1.000
    O289    O    0.51090   0.50230   0.90965   1.000
    O290    O    0.00503   0.65457   0.88349   1.000
    O291    O    0.50389   0.65438   0.88354   1.000
    O292    O    0.50384   0.68715   0.52600   1.000
    O293    O    0.00000   0.68714   0.52590   1.000
    O294    O    0.48648   0.77607   0.62837   1.000
    O295    O    0.98544   0.77571   0.62776   1.000
    O296    O    0.48909   0.00400   0.59004   1.000
    O297    O    0.99012   0.00398   0.59004   1.000
    O298    O    0.49384   0.15610   0.61650   1.000
    O299    O    0.99481   0.15606   0.61658   1.000
    O300    O    0.99712   0.18526   0.97489   1.000
    O301    O    0.49608   0.18544   0.97472   1.000
    O302    O    0.01242   0.27583   0.87281   1.000
    O303    O    0.51344   0.27552   0.87292   1.000
    O304    O    0.49133   0.99609   0.40999   1.000
    O305    O    0.99013   0.99602   0.40994   1.000
    O306    O    0.49374   0.84387   0.38342   1.000
    O307    O    0.99482   0.84394   0.38341   1.000
    O308    O    0.99712   0.81474   0.02500   1.000
    O309    O    0.49609   0.81457   0.02527   1.000
    O310    O    0.01243   0.72418   0.12718   1.000
    O311    O    0.51346   0.72446   0.12705   1.000
loop_
    _geom_bond_atom_site_label_1
    _geom_bond_atom_site_label_2
    _geom_bond_distance
    _geom_bond_site_symmetry_2
    _ccdc_geom_bond_type
    Cd32   N132      2.37808      .   S
    Cd32   N135      2.38062  1_455   S
    Cd32   O308      2.54467  1_455   S
    Cd32   O280      2.40269      .   S
    Cd32   O310      2.31760      .   S
    Cd32   O290      2.32331  1_554   S
    Cd0    N133      2.37779      .   S
    Cd0    N134      2.38193      .   S
    Cd0    O309      2.54596      .   S
    Cd0    O281      2.40279      .   S
    Cd0    O311      2.31850      .   S
    Cd0    O291      2.32427  1_554   S
    N133   C117      1.34675      .   S
    N133   C119      1.34516  1_554   S
    N132   C116      1.34666      .   S
    N132   C118      1.34525  1_554   S
    N135   C146      1.34592      .   S
    N135   C138      1.34726  1_554   S
    N134   C145      1.34590      .   S
    N134   C137      1.34731  1_554   S
    C125   C129      1.47736      .   S
    C125   C123      1.40332      .   S
    C125   C121      1.40343  1_554   S
    C124   C128      1.47753      .   S
    C124   C122      1.40333      .   S
    C124   C120      1.40349  1_554   S
    C129   C144      1.40325      .   S
    C129   C140      1.40327  1_554   S
    C128   C143      1.40428      .   S
    C128   C139      1.40235  1_554   S
    O308   C245      1.27225  1_655   S
    O309   C246      1.27052      .   S
    C173   C175      1.38996      .   S
    C173   H44       1.09109      .   S
    C173   N264      1.34727  1_554   S
    C174   C176      1.38995      .   S
    C174   H45       1.09126      .   S
    C174   N265      1.34705  1_554   S
    C175   H46       1.08950      .   S
    C175   C169      1.40349  1_554   S
    C176   H47       1.08945      .   S
    C176   C170      1.40348  1_554   S
    C159   C161      1.38932      .   S
    C159   H36       1.09051      .   S
    C159   N262      1.34540  1_554   S
    C160   C162      1.38926      .   S
    C160   H37       1.09048      .   S
    C160   N263      1.34523  1_554   S
    C161   H38       1.08949      .   S
    C161   C165      1.40335  1_554   S
    C162   H39       1.09072      .   S
    C162   C166      1.40214  1_554   S
    H109   C254      1.08852      .   S
    H108   C253      1.08861      .   S
    C146   C144      1.39063      .   S
    C146   H24       1.09045      .   S
    C145   C143      1.39071      .   S
    C145   H23       1.09040      .   S
    C144   H22       1.08948      .   S
    C143   H21       1.08954      .   S
    H115   N279      1.02590      .   S
    H114   N278      1.02581      .   S
    C117   C123      1.39093      .   S
    C117   H8        1.09068      .   S
    C116   C122      1.39096      .   S
    C116   H7        1.09065      .   S
    C123   H14       1.08978      .   S
    C122   H13       1.08974      .   S
    O280   C126      1.27618      .   S
    O281   C127      1.27632      .   S
    C245   O310      1.28629      .   S
    C245   C251      1.49947  1_455   S
    C246   O311      1.28649      .   S
    C246   C252      1.49942      .   S
    O283   C127      1.28322      .   S
    O283   Cd2       2.32344  1_554   S
    O282   C126      1.28275      .   S
    O282   Cd1       2.32349  1_554   S
    C254   C251      1.39551      .   S
    C254   C258      1.40992  1_565   S
    C253   C252      1.39552      .   S
    C253   C257      1.40937  1_565   S
    N279   H113      1.01956      .   S
    N279   C258      1.38804      .   S
    N278   H112      1.01950      .   S
    N278   C257      1.38745      .   S
    C127   C156      1.49665      .   S
    C126   C155      1.49650      .   S
    C251   C239      1.39649      .   S
    C252   C240      1.39651      .   S
    C258   C256      1.41233      .   S
    C257   C255      1.41346      .   S
    H28    C152      1.09129      .   S
    H27    C151      1.09153      .   S
    C156   C152      1.40367      .   S
    C156   C130      1.39993      .   S
    C155   C151      1.40351      .   S
    C155   C131      1.40463      .   S
    C239   H94       1.08375  1_655   S
    C239   C260      1.40003      .   S
    C240   H95       1.08376      .   S
    C240   C259      1.40004      .   S
    C256   C260      1.40379  1_545   S
    C256   H111      1.09120      .   S
    C255   C259      1.40377  1_545   S
    C255   H110      1.09117      .   S
    H16    C131      1.07917  1_655   S
    H15    C130      1.08367      .   S
    C152   C154      1.41231      .   S
    C151   C153      1.41242      .   S
    C131   C148      1.39476      .   S
    C130   C147      1.39641      .   S
    C260   C236      1.49655      .   S
    C259   C235      1.49641      .   S
    C154   N261      1.38831      .   S
    C154   C150      1.40986      .   S
    C153   N136      1.38775      .   S
    C153   C149      1.41005      .   S
    H29    N136      1.02048      .   S
    H30    N261      1.01983      .   S
    C148   C149      1.41216      .   S
    C148   C142      1.49329  1_455   S
    C147   C150      1.39559      .   S
    C147   C141      1.49920      .   S
    H92    C231      1.09049      .   S
    H93    C232      1.08968      .   S
    C236   O307      1.28227      .   S
    C236   O305      1.27752      .   S
    C235   O306      1.28225      .   S
    C235   O304      1.27736      .   S
    N261   H33       1.02605      .   S
    N136   H31       1.02594      .   S
    H86    C225      1.09058      .   S
    H87    C226      1.09087      .   S
    O287   C142      1.28603      .   S
    O287   Cd6       2.32706      .   S
    O286   C141      1.28597      .   S
    O286   Cd5       2.32687      .   S
    H104   C247      1.08939      .   S
    H105   C248      1.08952      .   S
    C150   H26       1.08859      .   S
    C149   H25       1.08775      .   S
    O307   Cd4       2.33434      .   S
    O306   Cd3       2.33508      .   S
    H106   C249      1.09000      .   S
    H107   C250      1.09139      .   S
    H65    C198      1.08931      .   S
    H64    C197      1.08959      .   S
    H63    C196      1.09032      .   S
    H62    C195      1.09039      .   S
    C142   O285      1.26030  1_655   S
    C141   O284      1.27069      .   S
    O305   Cd6       2.41164  1_565   S
    O304   Cd5       2.41137  1_565   S
    C231   C225      1.39087      .   S
    C231   C233      1.40192      .   S
    C232   C226      1.39093      .   S
    C232   C234      1.40332      .   S
    C225   N274      1.34675      .   S
    C226   N275      1.34657      .   S
    H73    C208      1.08944      .   S
    H72    C103      1.08953      .   S
    C247   C249      1.39055      .   S
    C247   C237      1.40324      .   S
    C248   C250      1.39071      .   S
    C248   C238      1.40317      .   S
    H71    C102      1.09136      .   S
    H70    C101      1.09119      .   S
    C249   N276      1.34626      .   S
    C250   N277      1.34597      .   S
    C198   C196      1.38943      .   S
    C198   C202      1.40342      .   S
    C197   C195      1.38937      .   S
    C197   C201      1.40196      .   S
    C196   N269      1.34521      .   S
    C195   N268      1.34531      .   S
    C208   C102      1.39005      .   S
    C208   C206      1.40332      .   S
    C103   C101      1.38993      .   S
    C103   C205      1.40312      .   S
    C102   N271      1.34696      .   S
    C101   N270      1.34697      .   S
    O284   Cd5       2.53485      .   S
    O285   Cd6       2.52023  1_455   S
    C237   C233      1.47726      .   S
    C237   C243      1.40324      .   S
    C238   C234      1.47764      .   S
    C238   C244      1.40322      .   S
    C233   C229      1.40435      .   S
    C234   C230      1.40321      .   S
    N276   Cd6       2.37878  1_455   S
    N276   C241      1.34701      .   S
    N277   Cd5       2.38073      .   S
    N277   C242      1.34699      .   S
    N274   Cd5       2.37979      .   S
    N274   C227      1.34527      .   S
    N275   Cd6       2.37912      .   S
    N275   C228      1.34553      .   S
    Cd5    O298      2.33278      .   S
    Cd6    O299      2.33449      .   S
    Cd4    N269      2.37993      .   S
    Cd4    N270      2.37973  1_655   S
    Cd4    O293      2.52045  1_655   S
    Cd4    O297      2.41131  1_565   S
    Cd4    O295      2.32696      .   S
    Cd3    N268      2.37805      .   S
    Cd3    N271      2.37958      .   S
    Cd3    O292      2.52851      .   S
    Cd3    O296      2.41200  1_565   S
    Cd3    O294      2.32979      .   S
    N269   C194      1.34696      .   S
    N268   C193      1.34683      .   S
    N271   C214      1.34589      .   S
    N270   C213      1.34582      .   S
    C202   C206      1.47765      .   S
    C202   C200      1.40327      .   S
    C201   C205      1.47742      .   S
    C201   C199      1.40445      .   S
    C206   C212      1.40321      .   S
    C205   C211      1.40316      .   S
    O293   C178      1.26066  1_455   S
    O292   C177      1.27110      .   S
    C241   C243      1.38989      .   S
    C241   H96       1.09123      .   S
    C242   C244      1.39004      .   S
    C242   H97       1.09117      .   S
    C243   H98       1.08895      .   S
    C244   H99       1.08954      .   S
    C227   C229      1.38934      .   S
    C227   H88       1.09028      .   S
    C228   C230      1.38941      .   S
    C228   H89       1.09041      .   S
    C229   H90       1.08956      .   S
    C230   H91       1.08957      .   S
    H52    C185      1.08845      .   S
    H53    C186      1.08836      .   S
    C214   C212      1.39072      .   S
    C214   H77       1.09049      .   S
    C213   C211      1.39064      .   S
    C213   H76       1.09044      .   S
    C212   H75       1.08952      .   S
    C211   H74       1.08957      .   S
    H59    N267      1.02574      .   S
    H58    N266      1.02590      .   S
    C194   C200      1.39095      .   S
    C194   H61       1.09052      .   S
    C193   C199      1.39088      .   S
    C193   H60       1.09061      .   S
    C200   H67       1.08977      .   S
    C199   H66       1.08928      .   S
    O296   C203      1.27737      .   S
    O297   C204      1.27704      .   S
    C178   O295      1.28610      .   S
    C178   C184      1.49265  1_655   S
    C177   O294      1.28608      .   S
    C177   C183      1.49940      .   S
    O298   C203      1.28264      .   S
    O299   C204      1.28203      .   S
    C185   C184      1.41168      .   S
    C185   C189      1.41005      .   S
    C186   C183      1.39595      .   S
    C186   C190      1.41030      .   S
    N266   H56       1.01979      .   S
    N266   C189      1.38777      .   S
    N267   H57       1.01986      .   S
    N267   C190      1.38796      .   S
    C204   C224      1.49725      .   S
    C203   C223      1.49648      .   S
    C184   C172      1.39598      .   S
    C183   C171      1.39605      .   S
    C189   C187      1.41243      .   S
    C190   C188      1.41263      .   S
    H80    C219      1.09112      .   S
    H81    C220      1.09118      .   S
    C223   C219      1.40370  1_545   S
    C223   C100      1.40007      .   S
    C224   C220      1.40380  1_545   S
    C224   C207      1.40000      .   S
    C172   H43       1.07918  1_455   S
    C172   C191      1.40458      .   S
    C171   H42       1.08362      .   S
    C171   C192      1.39984      .   S
    C187   C191      1.40351      .   S
    C187   H54       1.09077      .   S
    C188   C192      1.40351      .   S
    C188   H55       1.09122      .   S
    H69    C100      1.08377      .   S
    H68    C207      1.08372  1_455   S
    C219   C221      1.41237      .   S
    C220   C222      1.41234      .   S
    C100   C216      1.39659      .   S
    C207   C215      1.39667      .   S
    C191   C167      1.49649      .   S
    C192   C168      1.49640      .   S
    C221   N272      1.38784      .   S
    C221   C217      1.40987  1_565   S
    C222   N273      1.38746      .   S
    C222   C218      1.41000  1_565   S
    H82    N272      1.01947      .   S
    H83    N273      1.01889      .   S
    C216   C217      1.39559      .   S
    C216   C210      1.49940      .   S
    C215   C218      1.39552      .   S
    C215   C209      1.49947  1_655   S
    H40    C163      1.08974      .   S
    H41    C164      1.08970      .   S
    C167   O290      1.28280      .   S
    C167   O288      1.27619      .   S
    C168   O291      1.28280      .   S
    C168   O289      1.27635      .   S
    N273   H85       1.02737      .   S
    N272   H84       1.02568      .   S
    H34    C157      1.09090      .   S
    H35    C158      1.09059      .   S
    O302   C209      1.28627      .   S
    O302   Cd1       2.31734      .   S
    O303   C210      1.28650      .   S
    O303   Cd2       2.31871      .   S
    H48    C179      1.08953      .   S
    H49    C180      1.08952      .   S
    C217   H78       1.08865      .   S
    C218   H79       1.08853      .   S
    H50    C181      1.09048      .   S
    H51    C182      1.09039      .   S
    H12    C121      1.08956      .   S
    H11    C120      1.08952      .   S
    H10    C119      1.09037      .   S
    H9     C118      1.09051      .   S
    C210   O301      1.27061      .   S
    C209   O300      1.27053  1_455   S
    O288   Cd1       2.40264      .   S
    O289   Cd2       2.40248      .   S
    C163   C157      1.39097      .   S
    C163   C165      1.40332      .   S
    C164   C158      1.39093      .   S
    C164   C166      1.40338      .   S
    C157   N262      1.34667      .   S
    C158   N263      1.34682      .   S
    H20    C140      1.08948      .   S
    H19    C139      1.08952      .   S
    C179   C181      1.39070      .   S
    C179   C169      1.40327      .   S
    H18    C138      1.09127      .   S
    C180   C182      1.39061      .   S
    C180   C170      1.40321      .   S
    H17    C137      1.09115      .   S
    C181   N264      1.34578      .   S
    C182   N265      1.34601      .   S
    C121   C119      1.38927      .   S
    C120   C118      1.38929      .   S
    C140   C138      1.38995      .   S
    C139   C137      1.38996      .   S
    O301   Cd2       2.54548      .   S
    O300   Cd1       2.54477  1_655   S
    C169   C165      1.47755      .   S
    C170   C166      1.47737      .   S
    N264   Cd2       2.38208      .   S
    N265   Cd1       2.38059  1_655   S
    N262   Cd1       2.37812      .   S
    N263   Cd2       2.37762      .   S
