# CIF file generated by openbabel 2.4.90, see http://openbabel.sf.net
data_I
_chemical_name_common ''
_cell_length_a 23.679
_cell_length_b 14.304
_cell_length_c 17.532
_cell_angle_alpha 89.972
_cell_angle_beta 90.004
_cell_angle_gamma 90.006
_space_group_name_H-M_alt 'P 1'
_space_group_name_Hall 'P 1'
loop_
    _symmetry_equiv_pos_as_xyz
    x,y,z
loop_
    _atom_site_label
    _atom_site_type_symbol
    _atom_site_fract_x
    _atom_site_fract_y
    _atom_site_fract_z
    _atom_site_occupancy
    N0      N    0.24105   0.86936   0.51925   1.000
    N1      N    0.51211   0.48726   0.68106   1.000
    N2      N    0.75852   0.63101   0.01864   1.000
    N3      N    0.25850   0.63075   0.01910   1.000
    N4      N    0.75853   0.36899   0.98136   1.000
    N5      N    0.25851   0.36926   0.98087   1.000
    N6      N    0.24094   0.13057   0.48070   1.000
    N7      N    0.74100   0.13064   0.48097   1.000
    N8      N    0.51205   0.51284   0.31892   1.000
    N9      N    0.48785   0.01269   0.18146   1.000
    N10     N    0.74102   0.86936   0.51906   1.000
    N11     N    0.98802   0.01270   0.18141   1.000
    N12     N    0.98802   0.98730   0.81857   1.000
    N13     N    0.48762   0.98732   0.81854   1.000
    N14     N    0.01163   0.48733   0.68103   1.000
    N15     N    0.01164   0.51268   0.31892   1.000
    Zr16    Zr   0.00603   0.50000   0.99998   1.000
    O17     O    0.08231   0.56618   0.00868   1.000
    O18     O    0.93223   0.56632   0.00889   1.000
    O19     O    0.99981   0.28549   0.92390   1.000
    O20     O    0.00774   0.48818   0.12484   1.000
    O21     O    0.00773   0.51183   0.87512   1.000
    O22     O    0.99981   0.71451   0.07608   1.000
    O23     O    0.93223   0.43368   0.99109   1.000
    O24     O    0.08231   0.43383   0.99129   1.000
    Zr25    Zr   0.50602   0.49999   0.99999   1.000
    O26     O    0.43222   0.56620   0.00908   1.000
    O27     O    0.58232   0.56627   0.00851   1.000
    O28     O    0.58232   0.43372   0.99148   1.000
    O29     O    0.43223   0.43379   0.99090   1.000
    O30     O    0.49976   0.71451   0.07611   1.000
    O31     O    0.50784   0.51178   0.87515   1.000
    O32     O    0.49968   0.28549   0.92388   1.000
    O33     O    0.50780   0.48824   0.12485   1.000
    Zr34    Zr   0.99313   0.00001   0.49998   1.000
    O35     O    0.99171   0.01211   0.62473   1.000
    O36     O    0.99918   0.21439   0.42387   1.000
    O37     O    0.06714   0.93392   0.50917   1.000
    O38     O    0.91704   0.93396   0.50870   1.000
    O39     O    0.99171   0.98790   0.37523   1.000
    O40     O    0.99918   0.78563   0.57608   1.000
    O41     O    0.91703   0.06606   0.49128   1.000
    O42     O    0.06709   0.06608   0.49079   1.000
    Zr43    Zr   0.49364   0.00010   0.50008   1.000
    O44     O    0.49168   0.01217   0.62477   1.000
    O45     O    0.50004   0.78567   0.57618   1.000
    O46     O    0.56736   0.06615   0.49093   1.000
    O47     O    0.41725   0.06608   0.49123   1.000
    O48     O    0.49192   0.98795   0.37530   1.000
    O49     O    0.50003   0.21453   0.42394   1.000
    O50     O    0.41730   0.93397   0.50883   1.000
    O51     O    0.56737   0.93394   0.50916   1.000
loop_
    _geom_bond_atom_site_label_1
    _geom_bond_atom_site_label_2
    _geom_bond_distance
    _geom_bond_site_symmetry_2
    _ccdc_geom_bond_type
    Zr16   O17       2.04484  1_556   S
    N3     O17       4.27671      .   S
    Zr16   O18       1.99468  1_456   S
    N2     O18       4.21975      .   S
    Zr16   O19       3.34961  1_455   S
    N12    O19       4.65712  1_565   S
    Zr16   O20       2.19587  1_556   S
    N15    O20       3.42195      .   S
    Zr16   O21       2.19594      .   S
    N14    O21       3.42220      .   S
    Zr16   O22       3.34967  1_456   S
    N11    O22       4.65714  1_545   S
    Zr16   O23       1.99446  1_455   S
    N4     O23       4.21940      .   S
    Zr16   O24       2.04508      .   S
    N5     O24       4.27709      .   S
    Zr25   O26       1.99399  1_556   S
    N3     O26       4.21986      .   S
    Zr25   O27       2.04574  1_556   S
    N2     O27       4.27727      .   S
    Zr25   O28       2.04600      .   S
    N4     O28       4.27758      .   S
    Zr25   O29       1.99368      .   S
    N5     O29       4.21948      .   S
    Zr25   O30       3.34991  1_556   S
    N9     O30       4.65735  1_545   S
    Zr25   O31       2.19560      .   S
    N1     O31       3.42241      .   S
    Zr25   O32       3.34981      .   S
    N13    O32       4.65723  1_565   S
    Zr25   O33       2.19568  1_556   S
    N8     O33       3.42224      .   S
    Zr34   O35       2.19431      .   S
    N12    O35       3.41772  1_565   S
    Zr34   O36       3.34667      .   S
    N15    O36       4.65523  1_455   S
    Zr34   O37       1.99775  1_645   S
    N0     O37       4.22415      .   S
    Zr34   O38       2.03999  1_545   S
    N10    O38       4.27301      .   S
    Zr34   O39       2.19428  1_545   S
    N11    O39       3.41754  1_545   S
    Zr34   O40       3.34659  1_545   S
    N14    O40       4.65521  1_455   S
    Zr34   O41       2.04041      .   S
    N7     O41       4.27320      .   S
    Zr34   O42       1.99656  1_655   S
    N6     O42       4.22229      .   S
    Zr43   O44       2.19353      .   S
    N13    O44       3.41693  1_565   S
    Zr43   O45       3.34777  1_545   S
    N1     O45       4.65562      .   S
    Zr43   O46       1.99119      .   S
    N7     O46       4.21739      .   S
    Zr43   O47       2.04616      .   S
    N6     O47       4.27947      .   S
    Zr43   O48       2.19488  1_545   S
    N9     O48       3.41809  1_545   S
    Zr43   O49       3.34783      .   S
    N8     O49       4.65516      .   S
    Zr43   O50       2.04585  1_545   S
    N0     O50       4.27823      .   S
    Zr43   O51       1.99236  1_545   S
    N10    O51       4.21788      .   S
