# CIF file generated by openbabel 2.4.90, see http://openbabel.sf.net
data_I
_chemical_name_common ''
_cell_length_a 10.412
_cell_length_b 18.782
_cell_length_c 27.669
_cell_angle_alpha 90.002
_cell_angle_beta 89.095
_cell_angle_gamma 89.994
_space_group_name_H-M_alt 'P 1'
_space_group_name_Hall 'P 1'
loop_
    _symmetry_equiv_pos_as_xyz
    x,y,z
loop_
    _atom_site_label
    _atom_site_type_symbol
    _atom_site_fract_x
    _atom_site_fract_y
    _atom_site_fract_z
    _atom_site_occupancy
    H0      H    0.35661   0.67539   0.51664   1.000
    H1      H    0.85663   0.67540   0.51660   1.000
    H2      H    0.24168   0.51660   0.41374   1.000
    H3      H    0.74168   0.51661   0.41372   1.000
    H4      H    0.06717   0.59757   0.38564   1.000
    H5      H    0.56715   0.59758   0.38563   1.000
    H6      H    0.03647   0.71583   0.42401   1.000
    H7      H    0.53645   0.71583   0.42401   1.000
    H8      H    0.99579   0.82949   0.66444   1.000
    H9      H    0.49577   0.82949   0.66443   1.000
    H10     H    0.12304   0.89027   0.80602   1.000
    H11     H    0.62304   0.89025   0.80601   1.000
    H12     H    0.29469   0.96524   0.76843   1.000
    H13     H    0.79471   0.96522   0.76842   1.000
    H14     H    0.32199   0.96770   0.67860   1.000
    H15     H    0.82201   0.96768   0.67861   1.000
    H16     H    0.29942   0.66708   0.88956   1.000
    H17     H    0.79943   0.66708   0.88956   1.000
    H18     H    0.08517   0.65567   0.75000   1.000
    H19     H    0.58517   0.65569   0.75800   1.000
    H20     H    0.43732   0.56670   0.79638   1.000
    H21     H    0.93731   0.56669   0.79637   1.000
    H22     H    0.47141   0.52872   0.88154   1.000
    H23     H    0.97140   0.52872   0.88154   1.000
    H24     H    0.14321   0.17544   0.98332   1.000
    H25     H    0.64325   0.17542   0.98335   1.000
    H26     H    0.25787   0.01657   0.08620   1.000
    H27     H    0.75795   0.01661   0.08629   1.000
    H28     H    0.43245   0.09746   0.11436   1.000
    H29     H    0.93250   0.09753   0.11441   1.000
    H30     H    0.46331   0.21571   0.07600   1.000
    H31     H    0.96333   0.21576   0.07603   1.000
    H32     H    0.50402   0.32953   0.83566   1.000
    H33     H    0.00000   0.32952   0.83566   1.000
    H34     H    0.37657   0.39038   0.69412   1.000
    H35     H    0.87657   0.39038   0.69412   1.000
    H36     H    0.20491   0.46532   0.73170   1.000
    H37     H    0.70491   0.46531   0.73177   1.000
    H38     H    0.17773   0.46774   0.82159   1.000
    H39     H    0.67773   0.46773   0.82159   1.000
    H40     H    0.20034   0.16713   0.61052   1.000
    H41     H    0.70034   0.16714   0.61052   1.000
    H42     H    0.41453   0.15576   0.74210   1.000
    H43     H    0.91451   0.15577   0.74210   1.000
    H44     H    0.06241   0.06676   0.70375   1.000
    H45     H    0.56242   0.06676   0.70375   1.000
    H46     H    0.02836   0.02876   0.61850   1.000
    H47     H    0.52836   0.02876   0.61858   1.000
    H48     H    0.14321   0.32456   0.48330   1.000
    H49     H    0.64319   0.32456   0.48336   1.000
    H50     H    0.25790   0.48338   0.58627   1.000
    H51     H    0.75791   0.48337   0.58628   1.000
    H52     H    0.43244   0.40245   0.61440   1.000
    H53     H    0.93246   0.40244   0.61440   1.000
    H54     H    0.46330   0.28421   0.57602   1.000
    H55     H    0.96332   0.28420   0.57601   1.000
    H56     H    0.50400   0.17046   0.33562   1.000
    H57     H    0.00000   0.17046   0.33563   1.000
    H58     H    0.37667   0.10963   0.19406   1.000
    H59     H    0.87667   0.10963   0.19407   1.000
    H60     H    0.20504   0.03467   0.23169   1.000
    H61     H    0.70503   0.03468   0.23169   1.000
    H62     H    0.17779   0.03224   0.32150   1.000
    H63     H    0.67779   0.03224   0.32150   1.000
    H64     H    0.20041   0.33287   0.11054   1.000
    H65     H    0.70042   0.33286   0.11053   1.000
    H66     H    0.41455   0.34421   0.24213   1.000
    H67     H    0.91455   0.34420   0.24213   1.000
    H68     H    0.06244   0.43321   0.20379   1.000
    H69     H    0.56244   0.43321   0.20379   1.000
    H70     H    0.02839   0.47123   0.11863   1.000
    H71     H    0.52839   0.47122   0.11863   1.000
    H72     H    0.35664   0.82459   0.01665   1.000
    H73     H    0.85660   0.82460   0.01661   1.000
    H74     H    0.24174   0.98342   0.91376   1.000
    H75     H    0.74166   0.98337   0.91369   1.000
    H76     H    0.06720   0.90248   0.88566   1.000
    H77     H    0.56714   0.90241   0.88561   1.000
    H78     H    0.03647   0.78423   0.92402   1.000
    H79     H    0.53645   0.78417   0.92399   1.000
    H80     H    0.99579   0.67050   0.16441   1.000
    H81     H    0.49578   0.67051   0.16440   1.000
    H82     H    0.12313   0.60969   0.30597   1.000
    H83     H    0.62313   0.60971   0.30597   1.000
    H84     H    0.29481   0.53474   0.26835   1.000
    H85     H    0.79482   0.53475   0.26835   1.000
    H86     H    0.32207   0.53230   0.17854   1.000
    H87     H    0.82207   0.53231   0.17854   1.000
    H88     H    0.29947   0.83289   0.38956   1.000
    H89     H    0.79948   0.83289   0.38957   1.000
    H90     H    0.08517   0.84432   0.25801   1.000
    H91     H    0.58518   0.84431   0.25802   1.000
    C92     C    0.96480   0.06758   0.63566   1.000
    C93     C    0.32165   0.22523   0.50400   1.000
    C94     C    0.82164   0.22522   0.50460   1.000
    C95     C    0.30478   0.29700   0.52739   1.000
    H96     H    0.43733   0.93330   0.29640   1.000
    H97     H    0.93731   0.93331   0.29640   1.000
    H98     H    0.47143   0.97127   0.38157   1.000
    H99     H    0.97142   0.97127   0.38150   1.000
    C100    C    0.17825   0.77477   0.49542   1.000
    C101    C    0.67825   0.77477   0.49541   1.000
    C102    C    0.19503   0.70299   0.47262   1.000
    C103    C    0.69503   0.70300   0.47261   1.000
    C104    C    0.29327   0.65800   0.48808   1.000
    C105    C    0.79327   0.65800   0.48808   1.000
    C106    C    0.30973   0.59041   0.46734   1.000
    C107    C    0.80973   0.59042   0.46733   1.000
    C108    C    0.22848   0.56910   0.42977   1.000
    C109    C    0.72845   0.56910   0.42977   1.000
    C110    C    0.13148   0.61434   0.41417   1.000
    C111    C    0.63148   0.61436   0.41416   1.000
    C112    C    0.11347   0.68088   0.43566   1.000
    C113    C    0.61346   0.68089   0.43565   1.000
    C114    C    0.41068   0.54232   0.48478   1.000
    C115    C    0.91067   0.54233   0.48477   1.000
    C116    C    0.17513   0.90298   0.61208   1.000
    C117    C    0.67512   0.90298   0.61207   1.000
    C118    C    0.16044   0.89907   0.66611   1.000
    C119    C    0.66043   0.89907   0.66610   1.000
    C120    C    0.06216   0.85835   0.68724   1.000
    C121    C    0.56215   0.85834   0.68723   1.000
    C122    C    0.04960   0.85406   0.73776   1.000
    C123    C    0.54958   0.85406   0.73776   1.000
    C124    C    0.22852   0.93092   0.92979   1.000
    C125    C    0.72844   0.93088   0.92974   1.000
    C126    C    0.13151   0.88569   0.91419   1.000
    C127    C    0.63148   0.88563   0.91413   1.000
    C128    C    0.11349   0.81915   0.93567   1.000
    C129    C    0.13345   0.89347   0.76600   1.000
    C130    C    0.63345   0.89345   0.76689   1.000
    C131    C    0.22966   0.93507   0.74569   1.000
    C132    C    0.72967   0.93505   0.74569   1.000
    C133    C    0.24500   0.93693   0.69551   1.000
    C134    C    0.74501   0.93692   0.69551   1.000
    C135    C    0.44975   0.80885   0.76017   1.000
    C136    C    0.94976   0.80885   0.76018   1.000
    C137    C    0.28500   0.72240   0.79979   1.000
    C138    C    0.78501   0.72239   0.79980   1.000
    C139    C    0.16797   0.56666   0.93974   1.000
    C140    C    0.66796   0.56666   0.93974   1.000
    C141    C    0.13884   0.59447   0.89046   1.000
    C142    C    0.63884   0.59447   0.89047   1.000
    C143    C    0.21948   0.64570   0.86930   1.000
    C144    C    0.71950   0.64569   0.86930   1.000
    C145    C    0.19917   0.66884   0.82188   1.000
    C146    C    0.69916   0.66885   0.82189   1.000
    C147    C    0.09826   0.63897   0.79530   1.000
    C148    C    0.59828   0.63897   0.79531   1.000
    C149    C    0.01628   0.58915   0.81681   1.000
    C150    C    0.51627   0.58916   0.81681   1.000
    C151    C    0.03495   0.56754   0.86440   1.000
    C152    C    0.53496   0.56754   0.86447   1.000
    C153    C    0.32165   0.27474   0.00460   1.000
    C154    C    0.82165   0.27475   0.00460   1.000
    C155    C    0.30478   0.20296   0.02737   1.000
    C156    C    0.80480   0.20298   0.02740   1.000
    C157    C    0.20650   0.15801   0.01180   1.000
    C158    C    0.70655   0.15801   0.01192   1.000
    C159    C    0.18996   0.09042   0.03262   1.000
    C160    C    0.69003   0.09044   0.03267   1.000
    C161    C    0.27117   0.06906   0.07019   1.000
    C162    C    0.77124   0.06910   0.07020   1.000
    C163    C    0.36818   0.11427   0.08582   1.000
    C164    C    0.86821   0.11433   0.08587   1.000
    C165    C    0.38628   0.18080   0.06434   1.000
    C166    C    0.88630   0.18085   0.06438   1.000
    C167    C    0.08897   0.04237   0.01518   1.000
    C168    C    0.58908   0.04236   0.01522   1.000
    C169    C    0.32489   0.40304   0.88809   1.000
    C170    C    0.82488   0.40303   0.88800   1.000
    C171    C    0.33935   0.39911   0.83405   1.000
    C172    C    0.83934   0.39910   0.83405   1.000
    C173    C    0.43760   0.35840   0.81288   1.000
    C174    C    0.93760   0.35839   0.81289   1.000
    C175    C    0.45010   0.35413   0.76230   1.000
    C176    C    0.95011   0.35413   0.76236   1.000
    C177    C    0.36620   0.39355   0.73325   1.000
    C178    C    0.86621   0.39355   0.73325   1.000
    C179    C    0.26998   0.43513   0.75449   1.000
    C180    C    0.76998   0.43512   0.75449   1.000
    C181    C    0.25471   0.43698   0.80467   1.000
    C182    C    0.75471   0.43697   0.80467   1.000
    C183    C    0.04994   0.30893   0.73992   1.000
    C184    C    0.54993   0.30893   0.73992   1.000
    C185    C    0.21470   0.22247   0.70029   1.000
    C186    C    0.71469   0.22248   0.70029   1.000
    C187    C    0.33188   0.06667   0.56039   1.000
    C188    C    0.83188   0.06668   0.56039   1.000
    C189    C    0.36093   0.09451   0.60960   1.000
    C190    C    0.86093   0.09451   0.60965   1.000
    C191    C    0.28027   0.14575   0.63079   1.000
    C192    C    0.78026   0.14576   0.63079   1.000
    C193    C    0.30057   0.16892   0.67821   1.000
    C194    C    0.80056   0.16893   0.67820   1.000
    C195    C    0.40146   0.13905   0.70480   1.000
    C196    C    0.90144   0.13905   0.70479   1.000
    C197    C    0.48347   0.08922   0.68331   1.000
    C198    C    0.98346   0.08922   0.68331   1.000
    C199    C    0.46482   0.06758   0.63566   1.000
    C200    C    0.80477   0.29699   0.52700   1.000
    C201    C    0.20652   0.34197   0.51190   1.000
    C202    C    0.70652   0.34197   0.51191   1.000
    C203    C    0.18998   0.40955   0.53265   1.000
    C204    C    0.68998   0.40955   0.53266   1.000
    C205    C    0.27119   0.43089   0.57023   1.000
    C206    C    0.77121   0.43089   0.57023   1.000
    C207    C    0.36818   0.38566   0.58585   1.000
    C208    C    0.86818   0.38565   0.58586   1.000
    C209    C    0.38627   0.31913   0.56436   1.000
    C210    C    0.88628   0.31912   0.56437   1.000
    C211    C    0.08900   0.45762   0.51521   1.000
    C212    C    0.58900   0.45762   0.51520   1.000
    C213    C    0.32483   0.09695   0.38803   1.000
    C214    C    0.82483   0.09695   0.38804   1.000
    C215    C    0.33935   0.10087   0.33399   1.000
    C216    C    0.83935   0.10088   0.33400   1.000
    C217    C    0.43762   0.14159   0.31284   1.000
    C218    C    0.93761   0.14159   0.31284   1.000
    C219    C    0.45015   0.14586   0.26231   1.000
    C220    C    0.95015   0.14586   0.26232   1.000
    C221    C    0.36629   0.10644   0.23319   1.000
    C222    C    0.86629   0.10644   0.23320   1.000
    C223    C    0.27007   0.06486   0.25441   1.000
    C224    C    0.77006   0.06487   0.25442   1.000
    C225    C    0.25477   0.06301   0.30459   1.000
    C226    C    0.75476   0.06301   0.30460   1.000
    C227    C    0.04998   0.19106   0.23990   1.000
    C228    C    0.54998   0.19106   0.23989   1.000
    C229    C    0.21475   0.27752   0.20030   1.000
    C230    C    0.71476   0.27751   0.20029   1.000
    C231    C    0.33190   0.43333   0.06044   1.000
    C232    C    0.83191   0.43333   0.06043   1.000
    C233    C    0.36098   0.40548   0.10969   1.000
    C234    C    0.86098   0.40549   0.10969   1.000
    C235    C    0.28033   0.35423   0.13082   1.000
    C236    C    0.78033   0.35424   0.13081   1.000
    C237    C    0.30062   0.33107   0.17823   1.000
    C238    C    0.80063   0.33106   0.17822   1.000
    C239    C    0.40151   0.36092   0.20482   1.000
    C240    C    0.90149   0.36093   0.20482   1.000
    C241    C    0.48350   0.41076   0.18335   1.000
    C242    C    0.98349   0.41076   0.18334   1.000
    C243    C    0.46486   0.43240   0.13500   1.000
    C244    C    0.96485   0.43241   0.13569   1.000
    C245    C    0.17825   0.72524   0.99541   1.000
    C246    C    0.67824   0.72523   0.99539   1.000
    C247    C    0.19504   0.79702   0.97263   1.000
    C248    C    0.69503   0.79700   0.97259   1.000
    C249    C    0.29331   0.84199   0.98809   1.000
    C250    C    0.79327   0.84199   0.98805   1.000
    C251    C    0.30977   0.90958   0.96735   1.000
    C252    C    0.80971   0.90957   0.96730   1.000
    C253    C    0.61346   0.81911   0.93563   1.000
    C254    C    0.41075   0.95765   0.98479   1.000
    C255    C    0.91065   0.95766   0.98470   1.000
    C256    C    0.17506   0.59701   0.11202   1.000
    C257    C    0.67506   0.59702   0.11202   1.000
    C258    C    0.16046   0.60092   0.16605   1.000
    C259    C    0.66046   0.60093   0.16605   1.000
    C260    C    0.06219   0.64165   0.18720   1.000
    C261    C    0.56217   0.64165   0.18720   1.000
    C262    C    0.04963   0.64591   0.23773   1.000
    C263    C    0.54963   0.64593   0.23772   1.000
    C264    C    0.13353   0.60651   0.26684   1.000
    C265    C    0.63352   0.60652   0.26684   1.000
    C266    C    0.22975   0.56491   0.24562   1.000
    C267    C    0.72976   0.56493   0.24560   1.000
    C268    C    0.24507   0.56306   0.19540   1.000
    C269    C    0.74507   0.56307   0.19545   1.000
    C270    C    0.44979   0.69113   0.26015   1.000
    C271    C    0.94979   0.69112   0.26015   1.000
    C272    C    0.28504   0.77759   0.29979   1.000
    C273    C    0.78505   0.77758   0.29979   1.000
    C274    C    0.16799   0.93331   0.43976   1.000
    C275    C    0.66799   0.93331   0.43970   1.000
    C276    C    0.13888   0.90552   0.39048   1.000
    C277    C    0.63887   0.90552   0.39049   1.000
    C278    C    0.21952   0.85429   0.36931   1.000
    C279    C    0.71953   0.85429   0.36931   1.000
    C280    C    0.19919   0.83115   0.32189   1.000
    C281    C    0.69920   0.83114   0.32190   1.000
    C282    C    0.09828   0.86102   0.29532   1.000
    C283    C    0.59829   0.86102   0.29532   1.000
    C284    C    0.01630   0.91085   0.31683   1.000
    C285    C    0.51629   0.91084   0.31680   1.000
    C286    C    0.03498   0.93246   0.36449   1.000
    C287    C    0.53498   0.93245   0.36449   1.000
    N288    N    0.43045   0.48037   0.46062   1.000
    N289    N    0.93037   0.48035   0.46063   1.000
    N290    N    0.47831   0.56278   0.52390   1.000
    N291    N    0.97831   0.56279   0.52389   1.000
    N292    N    0.37106   0.77187   0.73066   1.000
    N293    N    0.87109   0.77185   0.73066   1.000
    N294    N    0.28664   0.72802   0.75090   1.000
    N295    N    0.78665   0.72802   0.75092   1.000
    N296    N    0.35391   0.76474   0.82937   1.000
    N297    N    0.85394   0.76473   0.82938   1.000
    N298    N    0.43778   0.80911   0.80903   1.000
    N299    N    0.93780   0.80910   0.80904   1.000
    N300    N    0.06923   0.98040   0.03933   1.000
    N301    N    0.56939   0.98037   0.03930   1.000
    N302    N    0.02128   0.06285   0.97607   1.000
    N303    N    0.52146   0.06281   0.97609   1.000
    N304    N    0.12869   0.27196   0.76943   1.000
    N305    N    0.62867   0.27197   0.76943   1.000
    N306    N    0.21313   0.22813   0.74917   1.000
    N307    N    0.71310   0.22812   0.74916   1.000
    N308    N    0.14572   0.26479   0.67072   1.000
    N309    N    0.64569   0.26479   0.67071   1.000
    N310    N    0.06187   0.30917   0.69100   1.000
    N311    N    0.56183   0.30917   0.69106   1.000
    N312    N    0.06928   0.51959   0.53930   1.000
    N313    N    0.56934   0.51961   0.53934   1.000
    N314    N    0.02133   0.43715   0.47610   1.000
    N315    N    0.52133   0.43715   0.47611   1.000
    N316    N    0.12871   0.22801   0.26942   1.000
    N317    N    0.62871   0.22800   0.26941   1.000
    N318    N    0.21315   0.27185   0.24917   1.000
    N319    N    0.71310   0.27187   0.24910   1.000
    N320    N    0.14582   0.23520   0.17071   1.000
    N321    N    0.64585   0.23518   0.17070   1.000
    N322    N    0.06195   0.19082   0.19104   1.000
    N323    N    0.56190   0.19084   0.19103   1.000
    N324    N    0.43046   0.01963   0.96064   1.000
    N325    N    0.93030   0.01966   0.96062   1.000
    N326    N    0.47849   0.93716   0.02388   1.000
    N327    N    0.97829   0.93720   0.02387   1.000
    N328    N    0.37105   0.72810   0.23060   1.000
    N329    N    0.87109   0.72812   0.23065   1.000
    N330    N    0.28663   0.77195   0.25091   1.000
    N331    N    0.78666   0.77196   0.25092   1.000
    N332    N    0.35395   0.73523   0.32936   1.000
    N333    N    0.85401   0.73525   0.32936   1.000
    N334    N    0.43784   0.69086   0.30901   1.000
    N335    N    0.93786   0.69087   0.30901   1.000
    O336    O    0.27254   0.80019   0.51878   1.000
    O337    O    0.77254   0.80019   0.51878   1.000
    O338    O    0.07147   0.80688   0.48975   1.000
    O339    O    0.57147   0.80688   0.48970   1.000
    O340    O    0.28447   0.91991   0.59456   1.000
    O341    O    0.78446   0.91991   0.59455   1.000
    O342    O    0.07608   0.89034   0.58708   1.000
    O343    O    0.57606   0.89034   0.58707   1.000
    O344    O    0.27963   0.57498   0.95560   1.000
    O345    O    0.77962   0.57497   0.95561   1.000
    O346    O    0.07738   0.53390   0.96378   1.000
    O347    O    0.57738   0.53389   0.96378   1.000
    O348    O    0.22742   0.30021   0.98122   1.000
    O349    O    0.72742   0.30020   0.98122   1.000
    O350    O    0.42844   0.30682   0.01028   1.000
    O351    O    0.92845   0.30683   0.01028   1.000
    O352    O    0.21569   0.42007   0.90571   1.000
    O353    O    0.71567   0.42004   0.90570   1.000
    O354    O    0.42408   0.39035   0.91301   1.000
    O355    O    0.92408   0.39035   0.91301   1.000
    O356    O    0.22024   0.07499   0.54450   1.000
    O357    O    0.72024   0.07499   0.54449   1.000
    O358    O    0.42254   0.03388   0.53641   1.000
    O359    O    0.92254   0.03388   0.53641   1.000
    O360    O    0.22740   0.19978   0.48120   1.000
    O361    O    0.72740   0.19978   0.48121   1.000
    O362    O    0.42846   0.19315   0.51026   1.000
    O363    O    0.92845   0.19315   0.51026   1.000
    O364    O    0.21561   0.07993   0.40563   1.000
    O365    O    0.71562   0.07993   0.40564   1.000
    O366    O    0.42399   0.10963   0.41297   1.000
    O367    O    0.92399   0.10963   0.41297   1.000
    O368    O    0.22025   0.42502   0.04455   1.000
    O369    O    0.72026   0.42502   0.04454   1.000
    O370    O    0.42255   0.46611   0.03645   1.000
    O371    O    0.92255   0.46613   0.03645   1.000
    O372    O    0.27253   0.69981   0.01878   1.000
    O373    O    0.77252   0.69981   0.01878   1.000
    O374    O    0.07148   0.69314   0.98973   1.000
    O375    O    0.57147   0.69313   0.98970   1.000
    O376    O    0.28436   0.58007   0.09440   1.000
    O377    O    0.78436   0.58008   0.09445   1.000
    O378    O    0.07595   0.60966   0.08706   1.000
    O379    O    0.57593   0.60966   0.08706   1.000
    O380    O    0.27965   0.92499   0.45563   1.000
    O381    O    0.77965   0.92499   0.45564   1.000
    O382    O    0.07740   0.96608   0.46381   1.000
    O383    O    0.57739   0.96608   0.46381   1.000
loop_
    _geom_bond_atom_site_label_1
    _geom_bond_atom_site_label_2
    _geom_bond_distance
    _geom_bond_site_symmetry_2
    _ccdc_geom_bond_type
    C154   O351      1.27660      .   S
    C154   C156      1.49753      .   S
    C154   O349      1.27655  1_554   S
    C153   O350      1.27656      .   S
    C153   C155      1.49742      .   S
    C153   O348      1.27668  1_554   S
    C157   C155      1.39982      .   S
    C157   C159      1.40347      .   S
    C157   H24       1.08573  1_554   S
    C158   C156      1.39903      .   S
    C158   C160      1.40250      .   S
    C158   H25       1.08750  1_554   S
    C167   C159      1.47291      .   S
    C167   N300      1.35619  1_545   S
    C167   N302      1.35638  1_554   S
    C168   C160      1.47292      .   S
    C168   N301      1.35553  1_545   S
    C168   N303      1.35625  1_554   S
    H73    C250      1.08739  1_554   S
    H72    C249      1.08743  1_554   S
    O372   C245      1.27668  1_554   S
    O373   C246      1.27682  1_554   S
    N327   N300      1.32320  1_655   S
    N327   C255      1.35735  1_554   S
    N326   N301      1.32264      .   S
    N326   C254      1.35630  1_554   S
    C155   C165      1.40247      .   S
    C156   C166      1.40260      .   S
    C159   C161      1.40863      .   S
    C160   C162      1.40771      .   S
    O371   C232      1.30028      .   S
    O370   C231      1.30036      .   S
    O369   C232      1.25905      .   S
    O368   C231      1.25907      .   S
    C232   C234      1.49531      .   S
    C231   C233      1.49508      .   S
    C165   H30       1.08876      .   S
    C165   C163      1.39532      .   S
    C166   H31       1.08877      .   S
    C166   C164      1.39525      .   S
    C161   C163      1.39358      .   S
    C161   H26       1.08879      .   S
    C162   C164      1.39396      .   S
    C162   H27       1.08954      .   S
    C163   H28       1.08985      .   S
    C164   H29       1.08985      .   S
    O379   C257      1.27317      .   S
    O378   C256      1.27314      .   S
    O376   C256      1.27137      .   S
    O377   C257      1.27086      .   S
    C234   C236      1.39924      .   S
    C234   C244      1.40266      .   S
    C233   C235      1.39936      .   S
    C233   C243      1.39276      .   S
    H65    C236      1.08771      .   S
    H64    C235      1.08777      .   S
    C257   C259      1.50206      .   S
    C256   C258      1.50206      .   S
    H71    C243      1.07942      .   S
    H70    C244      1.08749  1_455   S
    C236   C238      1.40131      .   S
    C235   C237      1.40124      .   S
    C243   C241      1.41448      .   S
    C244   C242      1.39619      .   S
    H81    C261      1.08781      .   S
    H80    C260      1.08765  1_655   S
    C258   C260      1.39837      .   S
    C258   C268      1.40133      .   S
    C259   C261      1.39840      .   S
    C259   C269      1.40211      .   S
    N321   N323      1.32606      .   S
    N321   C230      1.35492      .   S
    N320   N322      1.32603      .   S
    N320   C229      1.35493      .   S
    C238   C230      1.47205      .   S
    C238   C240      1.40846      .   S
    C237   C229      1.47206      .   S
    C237   C239      1.40838      .   S
    H87    C269      1.08787      .   S
    H86    C268      1.08729      .   S
    C242   H68       1.09017  1_655   S
    C242   C240      1.39371      .   S
    C241   H69       1.08993      .   S
    C241   C239      1.39361      .   S
    C260   C262      1.40444      .   S
    C261   C263      1.40417      .   S
    N323   C228      1.35565      .   S
    N322   C227      1.35568      .   S
    H58    C221      1.08802      .   S
    H59    C222      1.08802      .   S
    C268   C266      1.39658      .   S
    C269   C267      1.39466      .   S
    C230   N319      1.35451      .   S
    C229   N318      1.35621      .   S
    C240   H67       1.08962      .   S
    C239   H66       1.08954      .   S
    N328   N330      1.32324      .   S
    N328   C270      1.35793      .   S
    N329   N331      1.32278      .   S
    N329   C271      1.35705      .   S
    H61    C224      1.09043      .   S
    H60    C223      1.09027      .   S
    C221   C223      1.39283      .   S
    C221   C219      1.40780      .   S
    C222   C224      1.39284      .   S
    C222   C220      1.40780      .   S
    C263   C270      1.47171      .   S
    C263   C265      1.40785      .   S
    C262   C271      1.47169  1_455   S
    C262   C264      1.40772      .   S
    C228   C219      1.47164      .   S
    C228   N317      1.35715      .   S
    C227   C220      1.47172  1_455   S
    C227   N316      1.35714      .   S
    C267   C265      1.39313      .   S
    C267   H85       1.09073      .   S
    C266   C264      1.39289      .   S
    C266   H84       1.09041      .   S
    N319   N317      1.32343      .   S
    N318   N316      1.32270      .   S
    N330   C272      1.35643      .   S
    N331   C273      1.35614      .   S
    C223   C225      1.39548      .   S
    C224   C226      1.39547      .   S
    H90    C282      1.08956      .   S
    H91    C283      1.08935      .   S
    C270   N334      1.35567      .   S
    C271   N335      1.35565      .   S
    C219   C217      1.40443      .   S
    C220   C218      1.40416      .   S
    C264   H82       1.08802      .   S
    C265   H83       1.08802      .   S
    C282   C284      1.39366      .   S
    C282   C280      1.40844      .   S
    C283   C285      1.39333      .   S
    C283   C281      1.40856      .   S
    H96    C285      1.08960      .   S
    H97    C284      1.09017  1_655   S
    C272   C280      1.47214      .   S
    C272   N332      1.35491      .   S
    C273   C281      1.47222      .   S
    C273   N333      1.35490      .   S
    C225   H62       1.08791      .   S
    C225   C215      1.40210      .   S
    C226   H63       1.08779      .   S
    C226   C216      1.40209      .   S
    N334   N332      1.32606      .   S
    N335   N333      1.32605      .   S
    C217   C215      1.39831      .   S
    C217   H56       1.08762      .   S
    C218   C216      1.39843      .   S
    C218   H57       1.06140  1_655   S
    C285   C287      1.39712      .   S
    C284   C286      1.39629      .   S
    C280   C278      1.40143      .   S
    C281   C279      1.40121      .   S
    C215   C213      1.50229      .   S
    C216   C214      1.50229      .   S
    C286   H99       1.08677  1_455   S
    C286   C276      1.40280      .   S
    C287   H98       1.08751      .   S
    C287   C277      1.40291      .   S
    C278   H88       1.08767      .   S
    C278   C276      1.39941      .   S
    C279   H89       1.08779      .   S
    C279   C277      1.39952      .   S
    H5     C111      1.08985      .   S
    H4     C110      1.08969      .   S
    C213   O364      1.27089      .   S
    C213   O366      1.27330      .   S
    C214   O365      1.27087      .   S
    C214   O367      1.27316      .   S
    C276   C274      1.49555      .   S
    C277   C275      1.49377      .   S
    H3     C109      1.08912      .   S
    H2     C108      1.08902      .   S
    C111   C109      1.39361      .   S
    C111   C113      1.39527      .   S
    C110   C108      1.39360      .   S
    C110   C112      1.39536      .   S
    H7     C113      1.08877      .   S
    H6     C112      1.08881      .   S
    C109   C107      1.40866      .   S
    C108   C106      1.40867      .   S
    C113   C103      1.40252      .   S
    C112   C102      1.40241      .   S
    C275   O381      1.25968      .   S
    C275   O383      1.30139      .   S
    C274   O380      1.25897      .   S
    C274   O382      1.30052      .   S
    N288   N315      1.32324      .   S
    N288   C114      1.35594      .   S
    N289   N314      1.32336  1_655   S
    N289   C115      1.35597      .   S
    C107   C115      1.47286      .   S
    C107   C105      1.40251      .   S
    C106   C114      1.47289      .   S
    C106   C104      1.40246      .   S
    C103   C105      1.39906      .   S
    C103   C101      1.49737      .   S
    C102   C104      1.39899      .   S
    C102   C100      1.49740      .   S
    N314   C211      1.35628      .   S
    N315   C212      1.35582      .   S
    O360   C93       1.26845      .   S
    O361   C94       1.27675      .   S
    H48    C201      1.08820      .   S
    H49    C202      1.08731      .   S
    C115   N291      1.35622      .   S
    C114   N290      1.35620      .   S
    C105   H1        1.08678      .   S
    C104   H0        1.08743      .   S
    O339   C101      1.27679      .   S
    O338   C100      1.27660      .   S
    C101   O337      1.27666      .   S
    C100   O336      1.27662      .   S
    C93    O362      1.27893      .   S
    C93    C95       1.50441      .   S
    C94    O363      1.27658      .   S
    C94    C200      1.49283      .   S
    C201   C95       1.39912      .   S
    C201   C203      1.40252      .   S
    C202   C200      1.39562      .   S
    C202   C204      1.40252      .   S
    C212   C204      1.47308      .   S
    C212   N313      1.35613      .   S
    C211   C203      1.47287      .   S
    C211   N312      1.35520      .   S
    N291   N312      1.32280  1_655   S
    N290   N313      1.32320      .   S
    C200   C210      1.41066      .   S
    C95    C209      1.40235      .   S
    C203   C205      1.40873      .   S
    C204   C206      1.40866      .   S
    O359   C188      1.30032      .   S
    O358   C187      1.30026      .   S
    O357   C188      1.25905      .   S
    O356   C187      1.25898      .   S
    C188   C190      1.49516      .   S
    C187   C189      1.49391      .   S
    C209   H54       1.08882      .   S
    C209   C207      1.39531      .   S
    C210   H55       1.08871      .   S
    C210   C208      1.39526      .   S
    C205   C207      1.39354      .   S
    C205   H50       1.08904      .   S
    C206   C208      1.39358      .   S
    C206   H51       1.08905      .   S
    C207   H52       1.08990      .   S
    C208   H53       1.08979      .   S
    O343   C117      1.27323      .   S
    O342   C116      1.27321      .   S
    O341   C117      1.27079      .   S
    O340   C116      1.27082      .   S
    C189   C191      1.39993      .   S
    C189   C199      1.40363      .   S
    C190   C192      1.39936      .   S
    C190   C92       1.40287      .   S
    H40    C191      1.08770      .   S
    H41    C192      1.08764      .   S
    C117   C119      1.50215      .   S
    C116   C118      1.50215      .   S
    H46    C92       1.08861  1_455   S
    H47    C199      1.08757      .   S
    C191   C193      1.40149      .   S
    C192   C194      1.40130      .   S
    C92    C198      1.39616      .   S
    C199   C197      1.39612      .   S
    H9     C121      1.08767      .   S
    H8     C120      1.08769  1_655   S
    C119   C121      1.39833      .   S
    C119   C134      1.40209      .   S
    C118   C120      1.39831      .   S
    C118   C133      1.40194      .   S
    N309   N311      1.32610      .   S
    N309   C186      1.35498      .   S
    N308   N310      1.32528      .   S
    N308   C185      1.35482      .   S
    C194   C186      1.47212      .   S
    C194   C196      1.40842      .   S
    C193   C185      1.47202      .   S
    C193   C195      1.40848      .   S
    H14    C133      1.08798      .   S
    H15    C134      1.08785      .   S
    C197   H45       1.09000      .   S
    C197   C195      1.39371      .   S
    C198   H44       1.09008  1_655   S
    C198   C196      1.39360      .   S
    C121   C123      1.40448      .   S
    C120   C122      1.40420      .   S
    N310   C183      1.35730      .   S
    N311   C184      1.35563      .   S
    H34    C177      1.08798      .   S
    H35    C178      1.08798      .   S
    C133   C131      1.39552      .   S
    C134   C132      1.39552      .   S
    C186   N307      1.35616      .   S
    C185   N306      1.35646      .   S
    C196   H43       1.08963      .   S
    C195   H42       1.08931      .   S
    N293   N295      1.32276      .   S
    N293   C136      1.35725      .   S
    N292   N294      1.32256      .   S
    N292   C135      1.35708      .   S
    H36    C179      1.09159      .   S
    H37    C180      1.09046      .   S
    C178   C180      1.39291      .   S
    C178   C176      1.40787      .   S
    C177   C179      1.39290      .   S
    C177   C175      1.40694      .   S
    C122   C136      1.47179  1_455   S
    C122   C129      1.39361      .   S
    C123   C135      1.47159      .   S
    C123   C130      1.40780      .   S
    C184   C175      1.47102      .   S
    C184   N305      1.35720      .   S
    C183   C176      1.47179  1_455   S
    C183   N304      1.35720      .   S
    C132   C130      1.39282      .   S
    C132   H13       1.09025      .   S
    C131   C129      1.38290      .   S
    C131   H12       1.09039      .   S
    N307   N305      1.32275      .   S
    N306   N304      1.32263      .   S
    H18    C147      1.30131      .   S
    N294   C137      1.35670      .   S
    N295   C138      1.35642      .   S
    C179   C181      1.39543      .   S
    C180   C182      1.39544      .   S
    H19    C148      1.08966      .   S
    C135   N298      1.35569      .   S
    C136   N299      1.35568      .   S
    C175   C173      1.40577      .   S
    C176   C174      1.40439      .   S
    C129   H10       1.11252      .   S
    C130   H11       1.08778      .   S
    C147   C149      1.39376      .   S
    C147   C145      1.40849      .   S
    C148   C150      1.39363      .   S
    C148   C146      1.40840      .   S
    H21    C149      1.09024  1_655   S
    H20    C150      1.08995      .   S
    C137   C145      1.47212      .   S
    C137   N296      1.35491      .   S
    C138   C146      1.47209      .   S
    C138   N297      1.35491      .   S
    C182   H39       1.08787      .   S
    C182   C172      1.40200      .   S
    C181   H38       1.08787      .   S
    C181   C171      1.40200      .   S
    N298   N296      1.32604      .   S
    N299   N297      1.32602      .   S
    C173   C171      1.39836      .   S
    C173   H32       1.08775      .   S
    C174   C172      1.39827      .   S
    C174   H33       1.06105  1_655   S
    C149   C151      1.39448      .   S
    C150   C152      1.39640      .   S
    C145   C143      1.40142      .   S
    C146   C144      1.40129      .   S
    C171   C169      1.50223      .   S
    C172   C170      1.49976      .   S
    C151   H23       1.08835  1_455   S
    C151   C141      1.40375      .   S
    C152   H22       1.08746      .   S
    C152   C142      1.40283      .   S
    C144   H17       1.08770      .   S
    C144   C142      1.39949      .   S
    C143   H16       1.08775      .   S
    C143   C141      1.39938      .   S
    H77    C127      1.08965      .   S
    H76    C126      1.08980      .   S
    C170   O353      1.27169      .   S
    C170   O355      1.27467      .   S
    C169   O352      1.27087      .   S
    C169   O354      1.27329      .   S
    C141   C139      1.49566      .   S
    C142   C140      1.49537      .   S
    H75    C125      1.08910      .   S
    H74    C124      1.08905      .   S
    C127   C125      1.39362      .   S
    C127   C253      1.39531      .   S
    C126   C124      1.39355      .   S
    C126   C128      1.39532      .   S
    H79    C253      1.08878      .   S
    H78    C128      1.08878      .   S
    C125   C252      1.40859      .   S
    C124   C251      1.40860      .   S
    C253   C248      1.40245      .   S
    C128   C247      1.40251      .   S
    C140   O345      1.25900      .   S
    C140   O347      1.30046      .   S
    C139   O344      1.25889      .   S
    C139   O346      1.30039      .   S
    N325   N302      1.32330  1_655   S
    N325   C255      1.35560  1_545   S
    N324   N303      1.32326      .   S
    N324   C254      1.35632  1_545   S
    C252   C255      1.47249      .   S
    C252   C250      1.40249      .   S
    C251   C254      1.47297      .   S
    C251   C249      1.40256      .   S
    C248   C250      1.39903      .   S
    C248   C246      1.49740      .   S
    C247   C249      1.39901      .   S
    C247   C245      1.49738      .   S
    O375   C246      1.27666      .   S
    O374   C245      1.27657      .   S
