# CIF file generated by openbabel 2.4.90, see http://openbabel.sf.net
data_I
_chemical_name_common ''
_cell_length_a 10.412
_cell_length_b 18.782
_cell_length_c 27.669
_cell_angle_alpha 90.002
_cell_angle_beta 89.095
_cell_angle_gamma 89.994
_space_group_name_H-M_alt 'P 1'
_space_group_name_Hall 'P 1'
loop_
    _symmetry_equiv_pos_as_xyz
    x,y,z
loop_
    _atom_site_label
    _atom_site_type_symbol
    _atom_site_fract_x
    _atom_site_fract_y
    _atom_site_fract_z
    _atom_site_occupancy
    N0      N    0.38628   0.75457   0.77891   1.000
    N1      N    0.88628   0.75457   0.77914   1.000
    N2      N    0.99986   0.99998   0.99997   1.000
    N3      N    0.49991   0.00000   0.00001   1.000
    N4      N    0.61348   0.25463   0.72096   1.000
    N5      N    0.11337   0.25463   0.72096   1.000
    N6      N    0.99987   0.49999   0.49997   1.000
    N7      N    0.49988   0.49999   0.49999   1.000
    N8      N    0.61352   0.24536   0.22095   1.000
    N9      N    0.11340   0.24536   0.22093   1.000
    N10     N    0.88631   0.74541   0.27914   1.000
    N11     N    0.38630   0.74542   0.27914   1.000
    Zr12    Zr   0.42354   0.89716   0.52308   1.000
    O13     O    0.34587   0.00362   0.57422   1.000
    O14     O    0.39625   0.86270   0.45366   1.000
    O15     O    0.27184   0.86435   0.59603   1.000
    O16     O    0.33611   0.78658   0.51313   1.000
    O17     O    0.55847   0.86784   0.45469   1.000
    O18     O    0.42375   0.78574   0.51677   1.000
    O19     O    0.43329   0.86066   0.59504   1.000
    Zr20    Zr   0.92354   0.89716   0.52308   1.000
    O21     O    0.05846   0.86784   0.45469   1.000
    O22     O    0.93329   0.86066   0.59509   1.000
    O23     O    0.92375   0.78575   0.51677   1.000
    O24     O    0.89625   0.86270   0.45367   1.000
    O25     O    0.84590   0.00362   0.57422   1.000
    O26     O    0.83612   0.78658   0.51314   1.000
    O27     O    0.77184   0.86435   0.59597   1.000
    Zr28    Zr   0.07640   0.39719   0.97708   1.000
    O29     O    0.06660   0.36069   0.90504   1.000
    O30     O    0.07614   0.28576   0.98332   1.000
    O31     O    0.15399   0.50362   0.92587   1.000
    O32     O    0.16378   0.28660   0.98696   1.000
    O33     O    0.94145   0.36785   0.04547   1.000
    O34     O    0.10363   0.36271   0.04648   1.000
    O35     O    0.22808   0.36441   0.90413   1.000
    Zr36    Zr   0.57638   0.39718   0.97708   1.000
    O37     O    0.72804   0.36440   0.90413   1.000
    O38     O    0.57615   0.28576   0.98333   1.000
    O39     O    0.65398   0.50361   0.92593   1.000
    O40     O    0.60365   0.36270   0.04648   1.000
    O41     O    0.44141   0.36784   0.04546   1.000
    O42     O    0.66376   0.28658   0.98695   1.000
    O43     O    0.56662   0.36069   0.90504   1.000
    Zr44    Zr   0.07637   0.10280   0.47703   1.000
    O45     O    0.16376   0.21339   0.48692   1.000
    O46     O    0.10360   0.13728   0.54645   1.000
    O47     O    0.15398   0.99637   0.42590   1.000
    O48     O    0.22807   0.13558   0.40408   1.000
    O49     O    0.06658   0.13930   0.40500   1.000
    O50     O    0.07612   0.21422   0.48329   1.000
    O51     O    0.94142   0.13215   0.54543   1.000
    Zr52    Zr   0.57636   0.10281   0.47703   1.000
    O53     O    0.44138   0.13215   0.54543   1.000
    O54     O    0.60363   0.13729   0.54644   1.000
    O55     O    0.72803   0.13558   0.40408   1.000
    O56     O    0.56660   0.13930   0.40500   1.000
    O57     O    0.66375   0.21340   0.48692   1.000
    O58     O    0.65398   0.99637   0.42591   1.000
    O59     O    0.57612   0.21422   0.48329   1.000
    Zr60    Zr   0.42352   0.60283   0.02305   1.000
    O61     O    0.27182   0.63563   0.09599   1.000
    O62     O    0.43327   0.63933   0.09507   1.000
    O63     O    0.33610   0.71341   0.01311   1.000
    O64     O    0.34587   0.49637   0.07420   1.000
    O65     O    0.55844   0.63215   0.95466   1.000
    O66     O    0.42375   0.71425   0.01676   1.000
    O67     O    0.39623   0.63728   0.95358   1.000
    Zr68    Zr   0.92352   0.60284   0.02305   1.000
    O69     O    0.93327   0.63934   0.09507   1.000
    O70     O    0.77182   0.63564   0.09600   1.000
    O71     O    0.05844   0.63215   0.95461   1.000
    O72     O    0.84590   0.49638   0.07420   1.000
    O73     O    0.92373   0.71425   0.01675   1.000
    O74     O    0.89622   0.63729   0.95364   1.000
    O75     O    0.83612   0.71342   0.01312   1.000
loop_
    _geom_bond_atom_site_label_1
    _geom_bond_atom_site_label_2
    _geom_bond_distance
    _geom_bond_site_symmetry_2
    _ccdc_geom_bond_type
    Zr12   O13       2.57238  1_565   S
    N5     O13       6.65270      .   S
    Zr12   O14       2.05080      .   S
    N11    O14       5.31005      .   S
    Zr12   O15       2.61687      .   S
    N1     O15       6.73767  1_655   S
    Zr12   O16       2.28604      .   S
    N6     O16       6.43482  1_655   S
    Zr12   O17       2.40285      .   S
    N10    O17       6.32496      .   S
    Zr12   O18       2.09982      .   S
    N7     O18       5.44390      .   S
    Zr12   O19       2.10964      .   S
    N0     O19       5.47862      .   S
    Zr20   O21       2.40284  1_655   S
    N11    O21       6.32491      .   S
    Zr20   O22       2.11117      .   S
    N1     O22       5.48300      .   S
    Zr20   O23       2.09982      .   S
    N6     O23       5.44389      .   S
    Zr20   O24       2.05077      .   S
    N10    O24       5.31009      .   S
    Zr20   O25       2.57230  1_565   S
    N4     O25       6.65241      .   S
    Zr20   O26       2.28600      .   S
    N7     O26       6.43481      .   S
    Zr20   O27       2.61565      .   S
    N0     O27       6.73417      .   S
    Zr28   O29       2.11178      .   S
    N5     O29       5.48349      .   S
    Zr28   O30       2.09988      .   S
    N2     O30       5.44454  1_665   S
    Zr28   O31       2.57304      .   S
    N0     O31       6.65531      .   S
    Zr28   O32       2.28574      .   S
    N3     O32       6.43349  1_554   S
    Zr28   O33       2.40307  1_456   S
    N8     O33       6.32484      .   S
    Zr28   O34       2.05037  1_556   S
    N9     O34       5.30896      .   S
    Zr28   O35       2.61661      .   S
    N4     O35       6.73758      .   S
    Zr36   O37       2.61647      .   S
    N5     O37       6.73702  1_455   S
    Zr36   O38       2.09975      .   S
    N3     O38       5.44414  1_554   S
    Zr36   O39       2.57224      .   S
    N1     O39       6.65261      .   S
    Zr36   O40       2.05045  1_556   S
    N8     O40       5.30922      .   S
    Zr36   O41       2.40314  1_556   S
    N9     O41       6.32505      .   S
    Zr36   O42       2.28570      .   S
    N2     O42       6.43332  1_565   S
    Zr36   O43       2.11174      .   S
    N4     O43       5.48353      .   S
    Zr44   O45       2.28591      .   S
    N7     O45       6.43409      .   S
    Zr44   O46       2.05083      .   S
    N5     O46       5.31018      .   S
    Zr44   O47       2.57172  1_545   S
    N11    O47       6.65153      .   S
    Zr44   O48       2.61666      .   S
    N8     O48       6.73758      .   S
    Zr44   O49       2.11160      .   S
    N9     O49       5.48322      .   S
    Zr44   O50       2.09982      .   S
    N6     O50       5.44420  1_655   S
    Zr44   O51       2.40334  1_455   S
    N4     O51       6.32544      .   S
    Zr52   O53       2.40349      .   S
    N5     O53       6.32587      .   S
    Zr52   O54       2.05084      .   S
    N4     O54       5.31024      .   S
    Zr52   O55       2.61653      .   S
    N9     O55       6.73729  1_455   S
    Zr52   O56       2.11149      .   S
    N8     O56       5.48304      .   S
    Zr52   O57       2.28590      .   S
    N6     O57       6.43408      .   S
    Zr52   O58       2.57176  1_545   S
    N10    O58       6.65165      .   S
    Zr52   O59       2.09981      .   S
    N7     O59       5.44414      .   S
    Zr60   O61       2.61658      .   S
    N10    O61       6.73785  1_655   S
    Zr60   O62       2.11138      .   S
    N11    O62       5.48339      .   S
    Zr60   O63       2.28582      .   S
    N2     O63       6.43402  1_656   S
    Zr60   O64       2.57269      .   S
    N9     O64       6.65309      .   S
    Zr60   O65       2.40278  1_554   S
    N1     O65       6.32489      .   S
    Zr60   O66       2.09983      .   S
    N3     O66       5.44414  1_545   S
    Zr60   O67       2.05213  1_554   S
    N0     O67       5.31401      .   S
    Zr68   O69       2.11136      .   S
    N10    O69       5.48333      .   S
    Zr68   O70       2.61672      .   S
    N11    O70       6.73773      .   S
    Zr68   O71       2.40401  1_654   S
    N0     O71       6.32842      .   S
    Zr68   O72       2.57267      .   S
    N8     O72       6.65301      .   S
    Zr68   O73       2.09970      .   S
    N2     O73       5.44377  1_556   S
    Zr68   O74       2.05058  1_554   S
    N1     O74       5.30967      .   S
    Zr68   O75       2.28574      .   S
    N3     O75       6.43383  1_545   S
