# CIF file generated by openbabel 2.4.90, see http://openbabel.sf.net
data_I
_chemical_name_common ''
_cell_length_a 10.412
_cell_length_b 18.782
_cell_length_c 27.669
_cell_angle_alpha 90.002
_cell_angle_beta 89.095
_cell_angle_gamma 89.994
_space_group_name_H-M_alt 'P 1'
_space_group_name_Hall 'P 1'
loop_
    _symmetry_equiv_pos_as_xyz
    x,y,z
loop_
    _atom_site_label
    _atom_site_type_symbol
    _atom_site_fract_x
    _atom_site_fract_y
    _atom_site_fract_z
    _atom_site_occupancy
    Zr0     Zr   0.42354   0.89716   0.52308   1.000
    Zr1     Zr   0.92354   0.89716   0.52308   1.000
    Zr2     Zr   0.07640   0.39719   0.97708   1.000
    Zr3     Zr   0.57638   0.39718   0.97708   1.000
    Zr4     Zr   0.07637   0.10280   0.47703   1.000
    Zr5     Zr   0.57636   0.10281   0.47703   1.000
    Zr6     Zr   0.42352   0.60283   0.02305   1.000
    Zr7     Zr   0.92352   0.60284   0.02305   1.000
    N8      N    0.38628   0.75457   0.77891   1.000
    O9      O    0.62014   0.83155   0.66886   1.000
    O10     O    0.44304   0.82416   0.66699   1.000
    O11     O    0.36893   0.67173   0.88412   1.000
    O12     O    0.23158   0.61005   0.87467   1.000
    O13     O    0.19337   0.66147   0.88616   1.000
    N14     N    0.88628   0.75457   0.77914   1.000
    O15     O    0.12015   0.83155   0.66898   1.000
    O16     O    0.94305   0.82416   0.66711   1.000
    O17     O    0.86893   0.67174   0.88423   1.000
    O18     O    0.73158   0.61005   0.87478   1.000
    O19     O    0.69337   0.66146   0.88628   1.000
    N20     N    0.99986   0.99998   0.99997   1.000
    O21     O    0.07588   0.17434   0.98956   1.000
    O22     O    0.75114   0.17599   0.99683   1.000
    O23     O    0.92394   0.82565   0.01044   1.000
    O24     O    0.24868   0.82398   0.00317   1.000
    N25     N    0.49991   0.00000   0.00001   1.000
    O26     O    0.57591   0.17435   0.98958   1.000
    O27     O    0.25117   0.17601   0.99684   1.000
    O28     O    0.42397   0.82566   0.01046   1.000
    O29     O    0.74871   0.82400   0.00320   1.000
    N30     N    0.61348   0.25463   0.72096   1.000
    O31     O    0.37976   0.33163   0.83118   1.000
    O32     O    0.55686   0.32420   0.83300   1.000
    O33     O    0.63089   0.17176   0.61586   1.000
    O34     O    0.76826   0.11008   0.62535   1.000
    O35     O    0.80647   0.16149   0.61384   1.000
    N36     N    0.11337   0.25463   0.72096   1.000
    O37     O    0.87970   0.33162   0.83117   1.000
    O38     O    0.05680   0.32420   0.83300   1.000
    O39     O    0.13084   0.17176   0.61586   1.000
    O40     O    0.26820   0.11007   0.62535   1.000
    O41     O    0.30641   0.16149   0.61384   1.000
    N42     N    0.99987   0.49999   0.49997   1.000
    O43     O    0.92395   0.67433   0.51045   1.000
    O44     O    0.24869   0.67601   0.50318   1.000
    O45     O    0.07588   0.32564   0.48954   1.000
    O46     O    0.75114   0.32399   0.49681   1.000
    N47     N    0.49988   0.49999   0.49999   1.000
    O48     O    0.42396   0.67433   0.51046   1.000
    O49     O    0.74869   0.67600   0.50320   1.000
    O50     O    0.57588   0.32564   0.48956   1.000
    O51     O    0.25114   0.32398   0.49682   1.000
    N52     N    0.61352   0.24536   0.22095   1.000
    O53     O    0.37976   0.16836   0.33114   1.000
    O54     O    0.55685   0.17579   0.33297   1.000
    O55     O    0.63092   0.32823   0.11588   1.000
    O56     O    0.76828   0.38992   0.12535   1.000
    O57     O    0.80650   0.33851   0.11386   1.000
    N58     N    0.11340   0.24536   0.22093   1.000
    O59     O    0.87969   0.16836   0.33113   1.000
    O60     O    0.05679   0.17579   0.33297   1.000
    O61     O    0.13086   0.32823   0.11587   1.000
    O62     O    0.26822   0.38992   0.12534   1.000
    O63     O    0.30643   0.33850   0.11385   1.000
    N64     N    0.88631   0.74541   0.27914   1.000
    O65     O    0.12012   0.66843   0.16893   1.000
    O66     O    0.94302   0.67583   0.16710   1.000
    O67     O    0.86895   0.82824   0.38425   1.000
    O68     O    0.73159   0.88993   0.37478   1.000
    O69     O    0.69339   0.83852   0.38629   1.000
    N70     N    0.38630   0.74542   0.27914   1.000
    O71     O    0.62012   0.66844   0.16894   1.000
    O72     O    0.44301   0.67583   0.16710   1.000
    O73     O    0.36895   0.82825   0.38425   1.000
    O74     O    0.23159   0.88993   0.37478   1.000
    O75     O    0.19339   0.83852   0.38629   1.000
loop_
    _geom_bond_atom_site_label_1
    _geom_bond_atom_site_label_2
    _geom_bond_distance
    _geom_bond_site_symmetry_2
    _ccdc_geom_bond_type
    N8     O9        4.13010      .   S
    Zr1    O9        5.23130      .   S
    N8     O10       3.40429      .   S
    Zr0    O10       4.21927      .   S
    N8     O11       3.30316      .   S
    Zr6    O11       4.10425  1_554   S
    N8     O12       4.10468      .   S
    Zr2    O12       5.14608      .   S
    N8     O13       3.96378      .   S
    Zr7    O13       4.80801  1_654   S
    N14    O15       4.13237  1_655   S
    Zr0    O15       5.23374      .   S
    N14    O16       3.40711      .   S
    Zr1    O16       4.22233      .   S
    N14    O17       3.30042      .   S
    Zr7    O17       4.10116  1_554   S
    N14    O18       4.10276      .   S
    Zr3    O18       5.14448      .   S
    N14    O19       3.96150      .   S
    Zr6    O19       4.80556  1_554   S
    N20    O21       3.38040  1_665   S
    Zr2    O21       4.19976      .   S
    N20    O22       4.20087  1_565   S
    Zr3    O22       4.57140      .   S
    N20    O23       3.37978  1_556   S
    Zr7    O23       4.19941      .   S
    N20    O24       4.20150  1_656   S
    Zr6    O24       4.57163      .   S
    N25    O26       3.38012  1_554   S
    Zr3    O26       4.19951      .   S
    N25    O27       4.20100  1_554   S
    Zr2    O27       4.57148      .   S
    N25    O28       3.38003  1_545   S
    Zr6    O28       4.19966      .   S
    N25    O29       4.20137  1_545   S
    Zr7    O29       4.57148      .   S
    N30    O31       4.13257      .   S
    Zr2    O31       5.23323      .   S
    N30    O32       3.40696      .   S
    Zr3    O32       4.22348      .   S
    N30    O33       3.30070      .   S
    Zr5    O33       4.10169      .   S
    N30    O34       4.10249      .   S
    Zr1    O34       5.14460  1_565   S
    N30    O35       3.96151      .   S
    Zr4    O35       4.80668  1_455   S
    N36    O37       4.13214  1_455   S
    Zr3    O37       5.23294      .   S
    N36    O38       3.40688      .   S
    Zr2    O38       4.22356      .   S
    N36    O39       3.30067      .   S
    Zr4    O39       4.10166      .   S
    N36    O40       4.10270      .   S
    Zr0    O40       5.14477  1_565   S
    N36    O41       3.96178      .   S
    Zr5    O41       4.80698      .   S
    N42    O43       3.37979      .   S
    Zr1    O43       4.19963      .   S
    N42    O44       4.20205  1_655   S
    Zr0    O44       4.57208      .   S
    N42    O45       3.38012  1_655   S
    Zr4    O45       4.19964      .   S
    N42    O46       4.20141      .   S
    Zr5    O46       4.57180      .   S
    N47    O48       3.37979      .   S
    Zr0    O48       4.19964      .   S
    N47    O49       4.20206      .   S
    Zr1    O49       4.57199      .   S
    N47    O50       3.38008      .   S
    Zr5    O50       4.19961      .   S
    N47    O51       4.20141      .   S
    Zr4    O51       4.57182      .   S
    N52    O53       4.13252      .   S
    Zr4    O53       5.23332      .   S
    N52    O54       3.40677      .   S
    Zr5    O54       4.22297      .   S
    N52    O55       3.30010      .   S
    Zr3    O55       4.10091  1_556   S
    N52    O56       4.10268      .   S
    Zr7    O56       5.14534      .   S
    N52    O57       3.96119      .   S
    Zr2    O57       4.80614  1_456   S
    N58    O59       4.13235  1_455   S
    Zr5    O59       5.23307      .   S
    N58    O60       3.40683      .   S
    Zr4    O60       4.22320      .   S
    N58    O61       3.29993      .   S
    Zr2    O61       4.10074  1_556   S
    N58    O62       4.10275      .   S
    Zr6    O62       5.14538      .   S
    N58    O63       3.96131      .   S
    Zr3    O63       4.80628  1_556   S
    N64    O65       4.13282  1_655   S
    Zr6    O65       5.23317      .   S
    N64    O66       3.40719      .   S
    Zr7    O66       4.22272      .   S
    N64    O67       3.30062      .   S
    Zr1    O67       4.10154      .   S
    N64    O68       4.10232      .   S
    Zr5    O68       5.14352  1_545   S
    N64    O69       3.96150      .   S
    Zr0    O69       4.80569      .   S
    N70    O71       4.13256      .   S
    Zr7    O71       5.23345      .   S
    N70    O72       3.40723      .   S
    Zr6    O72       4.22276      .   S
    N70    O73       3.30054      .   S
    Zr0    O73       4.10160      .   S
    N70    O74       4.10225      .   S
    Zr4    O74       5.14344  1_545   S
    N70    O75       3.96146      .   S
    Zr1    O75       4.80568  1_655   S
