# CIF file generated by openbabel 2.4.90, see http://openbabel.sf.net
data_I
_chemical_name_common ''
_cell_length_a 13.569
_cell_length_b 13.571
_cell_length_c 23.187
_cell_angle_alpha 90.029
_cell_angle_beta 89.966
_cell_angle_gamma 90.014
_space_group_name_H-M_alt 'P 1'
_space_group_name_Hall 'P 1'
loop_
    _symmetry_equiv_pos_as_xyz
    x,y,z
loop_
    _atom_site_label
    _atom_site_type_symbol
    _atom_site_fract_x
    _atom_site_fract_y
    _atom_site_fract_z
    _atom_site_occupancy
    C0      C    0.85247   0.31271   0.78518   1.000
    C1      C    0.48684   0.33112   0.71600   1.000
    C2      C    0.14756   0.68726   0.28514   1.000
    C3      C    0.51331   0.66892   0.21596   1.000
    C4      C    0.18717   0.35241   0.03516   1.000
    C5      C    0.16883   0.98664   0.96604   1.000
    C6      C    0.81276   0.64755   0.53516   1.000
    C7      C    0.83117   0.01320   0.46601   1.000
    C8      C    0.64754   0.81273   0.46485   1.000
    C9      C    0.01312   0.83113   0.53404   1.000
    C10     C    0.35240   0.18723   0.96486   1.000
    C11     C    0.98665   0.16890   0.03401   1.000
    C12     C    0.31279   0.85247   0.21482   1.000
    C13     C    0.33117   0.48682   0.28398   1.000
    C14     C    0.68718   0.14758   0.71486   1.000
    C15     C    0.66889   0.51335   0.78403   1.000
