# CIF file generated by openbabel 2.4.90, see http://openbabel.sf.net
data_I
_chemical_name_common ''
_cell_length_a 13.569
_cell_length_b 13.571
_cell_length_c 23.187
_cell_angle_alpha 90.029
_cell_angle_beta 89.966
_cell_angle_gamma 90.014
_space_group_name_H-M_alt 'P 1'
_space_group_name_Hall 'P 1'
loop_
    _symmetry_equiv_pos_as_xyz
    x,y,z
loop_
    _atom_site_label
    _atom_site_type_symbol
    _atom_site_fract_x
    _atom_site_fract_y
    _atom_site_fract_z
    _atom_site_occupancy
    N0      N    0.17519   0.29395   0.73554   1.000
    N1      N    0.32476   0.79405   0.51448   1.000
    N2      N    0.20582   0.67504   0.98514   1.000
    N3      N    0.67504   0.20605   0.01445   1.000
    N4      N    0.79424   0.32481   0.48556   1.000
    N5      N    0.82493   0.70603   0.23550   1.000
    N6      N    0.70577   0.82496   0.76448   1.000
    N7      N    0.29415   0.17519   0.26443   1.000
    Zr8     Zr   0.32808   0.67198   0.24997   1.000
    O9      O    0.51175   0.68083   0.23540   1.000
    O10     O    0.28478   0.65792   0.15952   1.000
    O11     O    0.31372   0.85639   0.24319   1.000
    O12     O    0.14368   0.68637   0.25675   1.000
    O13     O    0.34206   0.71523   0.34035   1.000
    O14     O    0.31928   0.48835   0.26453   1.000
    Zr15    Zr   0.67198   0.32808   0.75002   1.000
    O16     O    0.85639   0.31364   0.75679   1.000
    O17     O    0.71530   0.34208   0.65965   1.000
    O18     O    0.48835   0.31921   0.73544   1.000
    O19     O    0.68073   0.51177   0.76458   1.000
    O20     O    0.68627   0.14369   0.74324   1.000
    O21     O    0.65792   0.28487   0.84028   1.000
    Zr22    Zr   0.17188   0.17190   0.00001   1.000
    O23     O    0.15789   0.21512   0.90964   1.000
    O24     O    0.18068   0.98822   0.98536   1.000
    O25     O    0.18624   0.35630   0.00669   1.000
    O26     O    0.21518   0.15790   0.09037   1.000
    O27     O    0.98821   0.18078   0.01457   1.000
    O28     O    0.35628   0.18634   0.99323   1.000
    Zr29    Zr   0.82802   0.82804   0.50001   1.000
    O30     O    0.81372   0.64363   0.50679   1.000
    O31     O    0.81928   0.01167   0.48545   1.000
    O32     O    0.84208   0.78482   0.40962   1.000
    O33     O    0.64360   0.81366   0.49323   1.000
    O34     O    0.01163   0.81922   0.51458   1.000
    O35     O    0.78472   0.84209   0.59038   1.000
loop_
    _geom_bond_atom_site_label_1
    _geom_bond_atom_site_label_2
    _geom_bond_distance
    _geom_bond_site_symmetry_2
    _ccdc_geom_bond_type
    Zr8    O9        2.51771      .   S
    N5     O9        4.26321      .   S
    Zr8    O10       2.18667      .   S
    N2     O10       4.18993  1_556   S
    Zr8    O11       2.51519      .   S
    N7     O11       4.36225  1_545   S
    Zr8    O12       2.51463      .   S
    N5     O12       4.36153  1_655   S
    Zr8    O13       2.18441      .   S
    N1     O13       4.18267      .   S
    Zr8    O14       2.51786      .   S
    N7     O14       4.26345      .   S
    Zr15   O16       2.51499      .   S
    N0     O16       4.36183  1_455   S
    Zr15   O17       2.18417      .   S
    N4     O17       4.18235      .   S
    Zr15   O18       2.51748      .   S
    N0     O18       4.26294      .   S
    Zr15   O19       2.51820      .   S
    N6     O19       4.26374      .   S
    Zr15   O20       2.51478      .   S
    N6     O20       4.36186  1_565   S
    Zr15   O21       2.18209      .   S
    N3     O21       4.18476  1_554   S
    Zr22   O23       2.18474  1_554   S
    N0     O23       4.18328      .   S
    Zr22   O24       2.51849  1_544   S
    N2     O24       4.26385      .   S
    Zr22   O25       2.51470      .   S
    N2     O25       4.36270  1_556   S
    Zr22   O26       2.18460      .   S
    N7     O26       4.18288      .   S
    Zr22   O27       2.51767  1_455   S
    N3     O27       4.26334      .   S
    Zr22   O28       2.51462  1_554   S
    N3     O28       4.36148  1_554   S
    Zr29   O30       2.51512      .   S
    N4     O30       4.36227      .   S
    Zr29   O31       2.51783  1_565   S
    N4     O31       4.26331      .   S
    Zr29   O32       2.18422      .   S
    N5     O32       4.18275      .   S
    Zr29   O33       2.51500      .   S
    N1     O33       4.36212      .   S
    Zr29   O34       2.51723  1_655   S
    N1     O34       4.26263      .   S
    Zr29   O35       2.18417      .   S
    N6     O35       4.18256      .   S
