# CIF file generated by openbabel 2.4.90, see http://openbabel.sf.net
data_I
_chemical_name_common ''
_cell_length_a 12.488
_cell_length_b 13.572
_cell_length_c 18.219
_cell_angle_alpha 106.039
_cell_angle_beta 89.968
_cell_angle_gamma 90.044
_space_group_name_H-M_alt 'P 1'
_space_group_name_Hall 'P 1'
loop_
    _symmetry_equiv_pos_as_xyz
    x,y,z
loop_
    _atom_site_label
    _atom_site_type_symbol
    _atom_site_fract_x
    _atom_site_fract_y
    _atom_site_fract_z
    _atom_site_occupancy
    H0      H    0.03277   0.93385   0.70702   1.000
    H1      H    0.53274   0.93386   0.70701   1.000
    H2      H    0.36725   0.77202   0.49938   1.000
    H3      H    0.86725   0.77204   0.49939   1.000
    H4      H    0.11591   0.06428   0.95156   1.000
    H5      H    0.61592   0.06421   0.95149   1.000
    H6      H    0.22954   0.72438   0.58113   1.000
    H7      H    0.72953   0.72439   0.58114   1.000
    H8      H    0.18366   0.93625   0.01445   1.000
    H9      H    0.68368   0.93632   0.01450   1.000
    H10     H    0.06674   0.86069   0.98570   1.000
    H11     H    0.56678   0.86070   0.98586   1.000
    H12     H    0.05645   0.96541   0.12198   1.000
    H13     H    0.55645   0.96554   0.12201   1.000
    H14     H    0.07730   0.07885   0.09469   1.000
    H15     H    0.57726   0.07893   0.09467   1.000
    H16     H    0.02128   0.78387   0.43585   1.000
    H17     H    0.52129   0.78386   0.43584   1.000
    H18     H    0.18338   0.86980   0.38692   1.000
    H19     H    0.68339   0.86979   0.38692   1.000
    H20     H    0.38434   0.88436   0.77919   1.000
    H21     H    0.88436   0.88433   0.77920   1.000
    H22     H    0.03006   0.56226   0.79319   1.000
    H23     H    0.53005   0.56227   0.79319   1.000
    H24     H    0.36872   0.72992   0.00000   1.000
    H25     H    0.86873   0.72994   0.00000   1.000
    H26     H    0.11462   0.43555   0.54940   1.000
    H27     H    0.61462   0.43554   0.54940   1.000
    H28     H    0.23072   0.77708   0.91955   1.000
    H29     H    0.73071   0.77708   0.91955   1.000
    H30     H    0.18434   0.56331   0.48672   1.000
    H31     H    0.68434   0.56331   0.48670   1.000
    H32     H    0.06749   0.63906   0.51453   1.000
    H33     H    0.56749   0.63906   0.51452   1.000
    H34     H    0.05849   0.53436   0.37838   1.000
    H35     H    0.55848   0.53435   0.37838   1.000
    H36     H    0.07815   0.42076   0.40570   1.000
    H37     H    0.57815   0.42076   0.40571   1.000
    H38     H    0.02245   0.71701   0.06400   1.000
    H39     H    0.52245   0.71700   0.06404   1.000
    H40     H    0.18470   0.63145   0.11282   1.000
    H41     H    0.68471   0.63145   0.11281   1.000
    H42     H    0.38112   0.61140   0.72131   1.000
    H43     H    0.88111   0.61137   0.72131   1.000
    H44     H    0.46726   0.06611   0.29300   1.000
    H45     H    0.96723   0.06611   0.29301   1.000
    H46     H    0.13272   0.22794   0.50064   1.000
    H47     H    0.63272   0.22796   0.50066   1.000
    H48     H    0.38413   0.93572   0.04854   1.000
    H49     H    0.88413   0.93568   0.04850   1.000
    H50     H    0.27045   0.27559   0.41890   1.000
    H51     H    0.77045   0.27562   0.41891   1.000
    H52     H    0.31636   0.06363   0.98556   1.000
    H53     H    0.81638   0.06371   0.98562   1.000
    H54     H    0.43325   0.13925   0.01420   1.000
    H55     H    0.93329   0.13928   0.01429   1.000
    H56     H    0.44360   0.03443   0.87804   1.000
    H57     H    0.94359   0.03456   0.87809   1.000
    H58     H    0.42276   0.92103   0.90538   1.000
    H59     H    0.92274   0.92112   0.90537   1.000
    H60     H    0.47869   0.21612   0.56419   1.000
    H61     H    0.97870   0.21610   0.56418   1.000
    H62     H    0.31659   0.13019   0.61311   1.000
    H63     H    0.81660   0.13017   0.61310   1.000
    H64     H    0.11565   0.11562   0.22084   1.000
    H65     H    0.61566   0.11562   0.22085   1.000
    H66     H    0.46993   0.43769   0.20685   1.000
    H67     H    0.96994   0.43771   0.20680   1.000
    H68     H    0.13127   0.27003   0.99890   1.000
    H69     H    0.63127   0.27004   0.99898   1.000
    H70     H    0.38538   0.56443   0.45064   1.000
    H71     H    0.88538   0.56443   0.45064   1.000
    H72     H    0.26928   0.22288   0.08049   1.000
    H73     H    0.76928   0.22288   0.08000   1.000
    H74     H    0.31566   0.43667   0.51332   1.000
    H75     H    0.81566   0.43667   0.51333   1.000
    H76     H    0.43251   0.36092   0.48552   1.000
    H77     H    0.93251   0.36092   0.48552   1.000
    H78     H    0.44152   0.46562   0.62166   1.000
    H79     H    0.94151   0.46562   0.62166   1.000
    H80     H    0.42185   0.57921   0.59432   1.000
    H81     H    0.92185   0.57922   0.59433   1.000
    H82     H    0.47753   0.28296   0.93000   1.000
    H83     H    0.97755   0.28295   0.93599   1.000
    H84     H    0.31528   0.36852   0.88723   1.000
    H85     H    0.81529   0.36851   0.88722   1.000
    H86     H    0.11889   0.38860   0.27873   1.000
    H87     H    0.61886   0.38857   0.27873   1.000
    C88     C    0.46613   0.88937   0.67580   1.000
    C89     C    0.96614   0.88936   0.67500   1.000
    C90     C    0.37608   0.79764   0.56118   1.000
    C91     C    0.87609   0.79764   0.56119   1.000
    C92     C    0.20441   0.96878   0.50291   1.000
    C93     C    0.70440   0.96878   0.50290   1.000
    C94     C    0.04740   0.88695   0.54966   1.000
    C95     C    0.54738   0.88695   0.54965   1.000
    S96     S    0.63875   0.51589   0.91062   1.000
    S97     S    0.36063   0.01665   0.41040   1.000
    S98     S    0.86061   0.01666   0.41039   1.000
    S99     S    0.36125   0.48408   0.08941   1.000
    C100    C    0.07897   0.98745   0.93620   1.000
    C101    C    0.57895   0.98740   0.93621   1.000
    C102    C    0.29815   0.77103   0.60637   1.000
    C103    C    0.79815   0.77103   0.60637   1.000
    C104    C    0.09750   0.93997   0.00285   1.000
    C105    C    0.59753   0.93999   0.00286   1.000
    C106    C    0.04165   0.00177   0.07587   1.000
    C107    C    0.54167   0.00183   0.07586   1.000
    C108    C    0.06790   0.84620   0.47221   1.000
    C109    C    0.56790   0.84619   0.47221   1.000
    C110    C    0.46388   0.85846   0.59551   1.000
    C111    C    0.96388   0.85847   0.59552   1.000
    C112    C    0.15575   0.89185   0.44591   1.000
    C113    C    0.65575   0.89184   0.44590   1.000
    C114    C    0.38458   0.86041   0.71715   1.000
    C115    C    0.88460   0.86039   0.71716   1.000
    C116    C    0.46433   0.60808   0.82444   1.000
    C117    C    0.96433   0.60808   0.82444   1.000
    C118    C    0.37659   0.70291   0.93924   1.000
    C119    C    0.87659   0.70292   0.93924   1.000
    C120    C    0.20449   0.53124   0.99715   1.000
    C121    C    0.70450   0.53123   0.99714   1.000
    C122    C    0.04730   0.61274   0.95053   1.000
    C123    C    0.54730   0.61273   0.95053   1.000
    C124    C    0.07805   0.51247   0.56436   1.000
    C125    C    0.57803   0.51246   0.56436   1.000
    C126    C    0.29846   0.72929   0.89416   1.000
    C127    C    0.79846   0.72929   0.89416   1.000
    C128    C    0.09797   0.55971   0.49774   1.000
    C129    C    0.59797   0.55970   0.49775   1.000
    C130    C    0.04285   0.49797   0.42438   1.000
    C131    C    0.54285   0.49798   0.42438   1.000
    C132    C    0.06858   0.65427   0.02776   1.000
    C133    C    0.56858   0.65426   0.02775   1.000
    C134    C    0.46343   0.64077   0.90481   1.000
    C135    C    0.96343   0.64077   0.90481   1.000
    C136    C    0.15651   0.60881   0.05390   1.000
    C137    C    0.65651   0.60880   0.05398   1.000
    C138    C    0.38258   0.63684   0.78332   1.000
    C139    C    0.88257   0.63682   0.78332   1.000
    C140    C    0.03386   0.11060   0.32414   1.000
    C141    C    0.53387   0.11061   0.32415   1.000
    C142    C    0.12389   0.20234   0.43884   1.000
    C143    C    0.62390   0.20235   0.43880   1.000
    C144    C    0.29559   0.03120   0.49713   1.000
    C145    C    0.79558   0.03119   0.49712   1.000
    C146    C    0.45260   0.11303   0.45030   1.000
    C147    C    0.95259   0.11303   0.45037   1.000
    C148    C    0.42108   0.01254   0.06384   1.000
    C149    C    0.92107   0.01251   0.06383   1.000
    C150    C    0.20183   0.22895   0.39366   1.000
    C151    C    0.70184   0.22896   0.39360   1.000
    C152    C    0.40251   0.05996   0.99719   1.000
    C153    C    0.90253   0.05999   0.99722   1.000
    C154    C    0.45837   0.99812   0.92419   1.000
    C155    C    0.95838   0.99819   0.92420   1.000
    C156    C    0.43209   0.15378   0.52783   1.000
    C157    C    0.93208   0.15377   0.52782   1.000
    C158    C    0.03610   0.14151   0.40451   1.000
    C159    C    0.53611   0.14151   0.40452   1.000
    C160    C    0.34424   0.10813   0.55413   1.000
    C161    C    0.84424   0.10812   0.55412   1.000
    C162    C    0.11541   0.13957   0.28287   1.000
    C163    C    0.61542   0.13957   0.28289   1.000
    C164    C    0.03567   0.39189   0.17560   1.000
    C165    C    0.53566   0.39188   0.17560   1.000
    C166    C    0.12341   0.29705   0.06080   1.000
    C167    C    0.62340   0.29706   0.06080   1.000
    C168    C    0.29550   0.46874   0.00289   1.000
    C169    C    0.79550   0.46873   0.00280   1.000
    C170    C    0.45270   0.38724   0.04951   1.000
    C171    C    0.95269   0.38723   0.04950   1.000
    C172    C    0.42196   0.48751   0.43567   1.000
    C173    C    0.92195   0.48751   0.43568   1.000
    C174    C    0.20154   0.27068   0.10580   1.000
    C175    C    0.70153   0.27068   0.10588   1.000
    C176    C    0.40203   0.44027   0.50229   1.000
    C177    C    0.90203   0.44027   0.50230   1.000
    C178    C    0.45715   0.50200   0.57565   1.000
    C179    C    0.95715   0.50201   0.57566   1.000
    C180    C    0.43141   0.34570   0.97229   1.000
    C181    C    0.93141   0.34570   0.97228   1.000
    C182    C    0.03657   0.35919   0.09522   1.000
    C183    C    0.53656   0.35919   0.09523   1.000
    C184    C    0.34348   0.39116   0.94606   1.000
    C185    C    0.84349   0.39115   0.94605   1.000
    C186    C    0.11742   0.36314   0.21672   1.000
    C187    C    0.61741   0.36313   0.21672   1.000
    S188    S    0.13937   0.98332   0.58964   1.000
    S189    S    0.63935   0.98333   0.58963   1.000
    S190    S    0.13875   0.51589   0.91063   1.000
    S191    S    0.86125   0.48407   0.08940   1.000
    N192    N    0.30111   0.80175   0.68353   1.000
    N193    N    0.80112   0.80175   0.68350   1.000
    N194    N    0.30021   0.69702   0.81702   1.000
    N195    N    0.80020   0.69701   0.81702   1.000
    N196    N    0.19888   0.19822   0.31650   1.000
    N197    N    0.69889   0.19823   0.31651   1.000
    N198    N    0.19980   0.30296   0.18302   1.000
    N199    N    0.69979   0.30295   0.18302   1.000
loop_
    _geom_bond_atom_site_label_1
    _geom_bond_atom_site_label_2
    _geom_bond_distance
    _geom_bond_site_symmetry_2
    _ccdc_geom_bond_type
    H24    C118      1.07012  1_554   S
    H25    C119      1.07012  1_554   S
    C169   S191      1.73967      .   S
    C169   C185      1.39117  1_554   S
    C169   C121      1.43933  1_554   S
    C104   H8        1.10047      .   S
    C104   C106      1.53071  1_565   S
    C104   C100      1.54152  1_554   S
    C104   H10       1.10306  1_554   S
    C105   H9        1.10046      .   S
    C105   C107      1.53067  1_565   S
    C105   C101      1.54093  1_554   S
    C105   H11       1.10305  1_554   S
    C168   S99       1.73842      .   S
    C168   C184      1.39192  1_554   S
    C168   C120      1.43967  1_554   S
    H54    C152      1.10304  1_554   S
    H55    C153      1.10304  1_554   S
    C133   C137      1.40690      .   S
    C133   H39       1.08781      .   S
    C133   C123      1.38912  1_554   S
    C132   C136      1.40611      .   S
    C132   H38       1.08747      .   S
    C132   C122      1.38927  1_554   S
    H49    C149      1.10297  1_565   S
    H48    C148      1.10297  1_565   S
    C171   S191      1.74166      .   S
    C171   C182      1.45347  1_655   S
    C171   C181      1.38912  1_554   S
    C170   S99       1.74166      .   S
    C170   C183      1.45340      .   S
    C170   C180      1.38913  1_554   S
    C136   H40       1.09027      .   S
    C136   C120      1.39115  1_554   S
    C137   H41       1.08881      .   S
    C137   C121      1.39201  1_554   S
    C166   C182      1.41031      .   S
    C166   C174      1.38414      .   S
    C166   H68       1.08966  1_554   S
    C167   C183      1.41037      .   S
    C167   C175      1.38512      .   S
    C167   H69       1.08829  1_554   S
    C149   C106      1.53471  1_655   S
    C149   C153      1.54090  1_554   S
    C148   C107      1.53458      .   S
    C148   C152      1.54105  1_554   S
    C107   H15       1.10060      .   S
    C107   H13       1.10131  1_545   S
    C106   H14       1.10059      .   S
    C106   H12       1.10127  1_545   S
    H73    C175      1.09098      .   S
    H72    C174      1.08823      .   S
    C182   C164      1.40802      .   S
    C183   C165      1.40784      .   S
    C174   N198      1.35318      .   S
    C175   N199      1.35179      .   S
    C165   H66       1.09045      .   S
    C165   C187      1.38518      .   S
    C164   H67       1.09023  1_455   S
    C164   C186      1.38517      .   S
    N198   C186      1.35120      .   S
    N199   C187      1.35121      .   S
    C186   H86       1.08645      .   S
    C187   H87       1.08645      .   S
    H64    C162      1.08621      .   S
    H65    C163      1.08639      .   S
    C162   N196      1.35114      .   S
    C162   C140      1.38526      .   S
    C163   N197      1.35109      .   S
    C163   C141      1.38514      .   S
    H44    C141      1.09048      .   S
    H45    C140      1.09045  1_655   S
    N196   C150      1.35187      .   S
    N197   C151      1.35066      .   S
    C140   C158      1.40763      .   S
    C141   C159      1.40763      .   S
    H35    C131      1.10116      .   S
    H34    C130      1.10123      .   S
    H19    C113      1.08879      .   S
    H18    C112      1.08893      .   S
    C151   H51       1.08898      .   S
    C151   C143      1.38524      .   S
    C150   H50       1.08866      .   S
    C150   C142      1.38498      .   S
    C158   C142      1.41024      .   S
    C158   C147      1.45332  1_455   S
    C159   C143      1.40998      .   S
    C159   C146      1.45233      .   S
    H36    C130      1.10082      .   S
    H37    C131      1.10082      .   S
    S98    C147      1.74147      .   S
    S98    C145      1.73836      .   S
    S97    C146      1.74115      .   S
    S97    C144      1.73843      .   S
    C131   C172      1.53523      .   S
    C131   C129      1.53094      .   S
    C130   C173      1.53534  1_455   S
    C130   C128      1.53085      .   S
    C172   H70       1.10287      .   S
    C172   C176      1.54130      .   S
    C173   H71       1.10286      .   S
    C173   C177      1.54123      .   S
    H17    C109      1.08789      .   S
    H16    C108      1.08781      .   S
    C143   H47       1.08939      .   S
    C142   H46       1.08835      .   S
    C113   C109      1.40697      .   S
    C113   C93       1.39229      .   S
    C112   C108      1.40688      .   S
    C112   C92       1.39228      .   S
    C146   C156      1.39101      .   S
    C147   C157      1.38963      .   S
    C109   C95       1.38951      .   S
    C108   C94       1.38964      .   S
    H76    C176      1.10305      .   S
    H77    C177      1.10306      .   S
    H31    C129      1.10065      .   S
    H30    C128      1.10055      .   S
    C145   C93       1.43972  1_545   S
    C145   C161      1.39228      .   S
    C144   C92       1.43973  1_545   S
    C144   C160      1.39227      .   S
    C128   H32       1.10306      .   S
    C128   C124      1.54124      .   S
    C129   H33       1.10305      .   S
    C129   C125      1.54114      .   S
    H2     C90       1.08836      .   S
    H3     C91       1.08836      .   S
    C176   H74       1.10057      .   S
    C176   C178      1.53081      .   S
    C177   H75       1.10058      .   S
    C177   C179      1.53084      .   S
    C93    S189      1.73840      .   S
    C92    S188      1.73835      .   S
    C157   C161      1.40688      .   S
    C157   H61       1.08781      .   S
    C156   C160      1.40691      .   S
    C156   H60       1.08780      .   S
    H27    C125      1.10286      .   S
    H26    C124      1.10286      .   S
    C95    S189      1.74146      .   S
    C95    C110      1.45325      .   S
    C94    S188      1.74146      .   S
    C94    C111      1.45330  1_455   S
    C161   H63       1.08877      .   S
    C160   H62       1.08881      .   S
    C90    C110      1.41026      .   S
    C90    C102      1.38506      .   S
    C91    C111      1.41024      .   S
    C91    C103      1.38495      .   S
    C125   C178      1.53524      .   S
    C124   C179      1.53533  1_455   S
    C178   H80       1.10081      .   S
    C178   H78       1.10132      .   S
    C179   H81       1.10081      .   S
    C179   H79       1.10123      .   S
    H6     C102      1.08867      .   S
    H7     C103      1.08861      .   S
    C110   C88       1.40624      .   S
    C111   C89       1.39211      .   S
    C102   N192      1.35188      .   S
    C103   N193      1.35135      .   S
    C89    H0        1.09653  1_655   S
    C89    C115      1.39535      .   S
    C88    H1        1.09090      .   S
    C88    C114      1.38611      .   S
    N193   C115      1.35131      .   S
    N192   C114      1.35111      .   S
    C114   H20       1.08639      .   S
    C115   H21       1.08638      .   S
    H43    C139      1.08645      .   S
    H42    C138      1.08645      .   S
    C138   N194      1.35121      .   S
    C138   C116      1.38519      .   S
    C139   N195      1.35120      .   S
    C139   C117      1.38517      .   S
    H23    C116      1.09044      .   S
    H22    C117      1.09057  1_455   S
    N194   C126      1.35179      .   S
    N195   C127      1.35179      .   S
    C117   C135      1.40785      .   S
    C116   C134      1.40785      .   S
    H56    C154      1.10137  1_545   S
    H57    C155      1.10130  1_545   S
    H85    C185      1.08879      .   S
    H84    C184      1.08880      .   S
    C127   H29       1.08861      .   S
    C127   C119      1.38510      .   S
    C126   H28       1.08861      .   S
    C126   C118      1.38514      .   S
    C134   C118      1.41036      .   S
    C134   C123      1.45342      .   S
    C135   C119      1.41036      .   S
    C135   C122      1.45345  1_655   S
    H59    C155      1.10059      .   S
    H58    C154      1.10059      .   S
    S96    C123      1.74169      .   S
    S96    C121      1.73842      .   S
    S190   C122      1.74166      .   S
    S190   C120      1.73840      .   S
    C154   C101      1.53461      .   S
    C154   C152      1.53064  1_565   S
    C155   C100      1.53459  1_655   S
    C155   C153      1.53070  1_565   S
    H82    C180      1.13503      .   S
    H83    C181      1.08782      .   S
    C100   H4        1.10296  1_565   S
    C101   H5        1.10298  1_565   S
    C185   C181      1.40687      .   S
    C184   C180      1.40690      .   S
    H52    C152      1.10042      .   S
    H53    C153      1.10047      .   S
