# CIF file generated by openbabel 2.4.90, see http://openbabel.sf.net
data_I
_chemical_name_common ''
_cell_length_a 12.488
_cell_length_b 13.572
_cell_length_c 18.219
_cell_angle_alpha 106.039
_cell_angle_beta 89.968
_cell_angle_gamma 90.044
_space_group_name_H-M_alt 'P 1'
_space_group_name_Hall 'P 1'
loop_
    _symmetry_equiv_pos_as_xyz
    x,y,z
loop_
    _atom_site_label
    _atom_site_type_symbol
    _atom_site_fract_x
    _atom_site_fract_y
    _atom_site_fract_z
    _atom_site_occupancy
    Lv0     Lv   0.75000   0.49998   0.99998   1.000
    Lv1     Lv   0.74999   0.99999   0.50001   1.000
    Lv2     Lv   0.00000   0.49999   0.50002   1.000
    Lv3     Lv   0.24999   0.49998   0.99979   1.000
    Lv4     Lv   0.25000   0.99999   0.49999   1.000
    Lv5     Lv   0.00002   0.99998   0.00003   1.000
    Lv6     Lv   0.50000   0.49999   0.50002   1.000
    Lv7     Lv   0.50002   0.99998   0.00003   1.000
