# CIF file generated by openbabel 2.4.90, see http://openbabel.sf.net
data_I
_chemical_name_common ''
_cell_length_a 12.488
_cell_length_b 13.572
_cell_length_c 18.219
_cell_angle_alpha 106.039
_cell_angle_beta 89.968
_cell_angle_gamma 90.044
_space_group_name_H-M_alt 'P 1'
_space_group_name_Hall 'P 1'
loop_
    _symmetry_equiv_pos_as_xyz
    x,y,z
loop_
    _atom_site_label
    _atom_site_type_symbol
    _atom_site_fract_x
    _atom_site_fract_y
    _atom_site_fract_z
    _atom_site_occupancy
    Zn0     Zn   0.68975   0.74977   0.75020   1.000
    Zn1     Zn   0.31025   0.25021   0.24983   1.000
    Zn2     Zn   0.81025   0.25020   0.24983   1.000
    Zn3     Zn   0.18975   0.74978   0.75020   1.000
    C4      C    0.13670   0.92564   0.86411   1.000
    C5      C    0.63669   0.92549   0.86412   1.000
    C6      C    0.13480   0.57417   0.63698   1.000
    C7      C    0.63480   0.57417   0.63697   1.000
    C8      C    0.36332   0.07441   0.13593   1.000
    C9      C    0.86332   0.07431   0.13590   1.000
    C10     C    0.36520   0.42580   0.36306   1.000
    C11     C    0.86520   0.42580   0.36306   1.000
    O12     O    0.21766   0.96125   0.84040   1.000
    O13     O    0.71774   0.96098   0.84046   1.000
    O14     O    0.09692   0.83472   0.83175   1.000
    O15     O    0.59686   0.83460   0.83176   1.000
    O16     O    0.21339   0.53739   0.66241   1.000
    O17     O    0.71339   0.53739   0.66240   1.000
    O18     O    0.09683   0.66614   0.66798   1.000
    O19     O    0.59683   0.66615   0.66790   1.000
    O20     O    0.28230   0.03887   0.15958   1.000
    O21     O    0.78236   0.03869   0.15962   1.000
    O22     O    0.40311   0.16533   0.16828   1.000
    O23     O    0.90307   0.16524   0.16830   1.000
    O24     O    0.28662   0.46259   0.33760   1.000
    O25     O    0.78662   0.46259   0.33762   1.000
    O26     O    0.40317   0.33383   0.33207   1.000
    O27     O    0.90317   0.33383   0.33207   1.000
loop_
    _geom_bond_atom_site_label_1
    _geom_bond_atom_site_label_2
    _geom_bond_distance
    _geom_bond_site_symmetry_2
    _ccdc_geom_bond_type
    C9     O21       1.24769      .   S
    C9     O23       1.30952      .   S
    C8     O20       1.24725      .   S
    C8     O22       1.30931      .   S
    O22    Zn1       1.98336      .   S
    O23    Zn2       1.98325      .   S
    Zn2    O27       1.98496      .   S
    Zn1    O26       1.98490      .   S
    O27    C11       1.30882      .   S
    O26    C10       1.30883      .   S
    O24    C10       1.24760      .   S
    O25    C11       1.24742      .   S
    C7     O17       1.24739      .   S
    C7     O19       1.30862      .   S
    C6     O16       1.24738      .   S
    C6     O18       1.30884      .   S
    O19    Zn0       1.98557      .   S
    O18    Zn3       1.98477      .   S
    Zn0    O15       1.98344      .   S
    Zn3    O14       1.98339      .   S
    O14    C4        1.30936      .   S
    O15    C5        1.30932      .   S
    O12    C4        1.24755      .   S
    O13    C5        1.24727      .   S
