# CIF file generated by openbabel 2.4.90, see http://openbabel.sf.net
data_I
_chemical_name_common ''
_cell_length_a 12.488
_cell_length_b 13.572
_cell_length_c 18.219
_cell_angle_alpha 106.039
_cell_angle_beta 89.968
_cell_angle_gamma 90.044
_space_group_name_H-M_alt 'P 1'
_space_group_name_Hall 'P 1'
loop_
    _symmetry_equiv_pos_as_xyz
    x,y,z
loop_
    _atom_site_label
    _atom_site_type_symbol
    _atom_site_fract_x
    _atom_site_fract_y
    _atom_site_fract_z
    _atom_site_occupancy
    C0      C    0.13670   0.92564   0.86411   1.000
    C1      C    0.63669   0.92549   0.86412   1.000
    C2      C    0.13480   0.57417   0.63698   1.000
    C3      C    0.63480   0.57417   0.63697   1.000
    C4      C    0.36332   0.07441   0.13593   1.000
    C5      C    0.86332   0.07431   0.13590   1.000
    C6      C    0.36520   0.42580   0.36306   1.000
    C7      C    0.86520   0.42580   0.36306   1.000
