# CIF file generated by openbabel 2.4.90, see http://openbabel.sf.net
data_I
_chemical_name_common ''
_cell_length_a 12.488
_cell_length_b 13.572
_cell_length_c 18.219
_cell_angle_alpha 106.039
_cell_angle_beta 89.968
_cell_angle_gamma 90.044
_space_group_name_H-M_alt 'P 1'
_space_group_name_Hall 'P 1'
loop_
    _symmetry_equiv_pos_as_xyz
    x,y,z
loop_
    _atom_site_label
    _atom_site_type_symbol
    _atom_site_fract_x
    _atom_site_fract_y
    _atom_site_fract_z
    _atom_site_occupancy
    Zr0     Zr   0.18975   0.74978   0.75020   1.000
    Zr1     Zr   0.68975   0.74977   0.75020   1.000
    Zr2     Zr   0.31025   0.25021   0.24983   1.000
    Zr3     Zr   0.81025   0.25020   0.24983   1.000
    Zr4     Zr   0.13670   0.92564   0.86411   1.000
    Zr5     Zr   0.63669   0.92549   0.86412   1.000
    Zr6     Zr   0.13480   0.57417   0.63698   1.000
    Zr7     Zr   0.63480   0.57417   0.63697   1.000
    Zr8     Zr   0.36332   0.07441   0.13593   1.000
    Zr9     Zr   0.86332   0.07431   0.13590   1.000
    Zr10    Zr   0.36520   0.42580   0.36306   1.000
    Zr11    Zr   0.86520   0.42580   0.36306   1.000
    Zr12    Zr   0.21766   0.96125   0.84040   1.000
    Zr13    Zr   0.71774   0.96098   0.84046   1.000
    Zr14    Zr   0.09692   0.83472   0.83175   1.000
    Zr15    Zr   0.59686   0.83460   0.83176   1.000
    Zr16    Zr   0.21339   0.53739   0.66241   1.000
    Zr17    Zr   0.71339   0.53739   0.66240   1.000
    Zr18    Zr   0.09683   0.66614   0.66798   1.000
    Zr19    Zr   0.59683   0.66615   0.66790   1.000
    Zr20    Zr   0.28230   0.03887   0.15958   1.000
    Zr21    Zr   0.78236   0.03869   0.15962   1.000
    Zr22    Zr   0.40311   0.16533   0.16828   1.000
    Zr23    Zr   0.90307   0.16524   0.16830   1.000
    Zr24    Zr   0.28662   0.46259   0.33760   1.000
    Zr25    Zr   0.78662   0.46259   0.33762   1.000
    Zr26    Zr   0.40317   0.33383   0.33207   1.000
    Zr27    Zr   0.90317   0.33383   0.33207   1.000
    O28     O    0.82284   0.05650   0.14776   1.000
    O29     O    0.88320   0.11978   0.15210   1.000
    O30     O    0.32281   0.05664   0.14775   1.000
    O31     O    0.38322   0.11987   0.15211   1.000
    O32     O    0.35668   0.20777   0.20906   1.000
    O33     O    0.85666   0.20772   0.20907   1.000
    O34     O    0.85671   0.29202   0.29095   1.000
    O35     O    0.35671   0.29202   0.29095   1.000
    O36     O    0.88419   0.37982   0.34757   1.000
    O37     O    0.38418   0.37981   0.34757   1.000
    O38     O    0.32591   0.44419   0.35033   1.000
    O39     O    0.82591   0.44420   0.35034   1.000
    O40     O    0.67409   0.55578   0.64969   1.000
    O41     O    0.61581   0.62016   0.65243   1.000
    O42     O    0.17409   0.55578   0.64970   1.000
    O43     O    0.11582   0.62016   0.65248   1.000
    O44     O    0.64329   0.70796   0.70905   1.000
    O45     O    0.14329   0.70796   0.70909   1.000
    O46     O    0.64331   0.79218   0.79098   1.000
    O47     O    0.14334   0.79225   0.79098   1.000
    O48     O    0.11681   0.88018   0.84793   1.000
    O49     O    0.61677   0.88004   0.84794   1.000
    O50     O    0.17718   0.94344   0.85226   1.000
    O51     O    0.67721   0.94324   0.85229   1.000
    N52     N    0.75000   0.49998   0.99998   1.000
    O53     O    0.99749   0.61169   0.89179   1.000
    O54     O    0.50251   0.38828   0.10820   1.000
    N55     N    0.74999   0.99999   0.50001   1.000
    O56     O    0.50228   0.11210   0.39159   1.000
    O57     O    0.99771   0.88788   0.60844   1.000
    N58     N    0.00000   0.49999   0.50002   1.000
    O59     O    0.94679   0.47832   0.44970   1.000
    O60     O    0.05321   0.52166   0.55035   1.000
    N61     N    0.24999   0.49998   0.99979   1.000
    O62     O    0.00251   0.38828   0.10811   1.000
    O63     O    0.49749   0.61168   0.89170   1.000
    N64     N    0.25000   0.99999   0.49999   1.000
    O65     O    0.00228   0.11210   0.39158   1.000
    O66     O    0.49772   0.88787   0.60842   1.000
    N67     N    0.00002   0.99998   0.00003   1.000
    O68     O    0.94611   0.02169   0.04995   1.000
    O69     O    0.05393   0.97826   0.95009   1.000
    N70     N    0.50000   0.49999   0.50002   1.000
    O71     O    0.55321   0.52165   0.55034   1.000
    O72     O    0.44679   0.47832   0.44969   1.000
    N73     N    0.50002   0.99998   0.00003   1.000
    O74     O    0.44611   0.02173   0.04996   1.000
    O75     O    0.55392   0.97821   0.95010   1.000
loop_
    _geom_bond_atom_site_label_1
    _geom_bond_atom_site_label_2
    _geom_bond_distance
    _geom_bond_site_symmetry_2
    _ccdc_geom_bond_type
    Zr9    O28       0.62385      .   S
    Zr21   O28       0.62385      .   S
    Zr9    O29       0.65476      .   S
    Zr23   O29       0.65476      .   S
    Zr8    O30       0.62362      .   S
    Zr20   O30       0.62362      .   S
    Zr8    O31       0.65466      .   S
    Zr22   O31       0.65466      .   S
    Zr22   O32       0.99168      .   S
    Zr2    O32       0.99168      .   S
    Zr23   O33       0.99162      .   S
    Zr3    O33       0.99162      .   S
    Zr3    O34       0.99248      .   S
    Zr27   O34       0.99248      .   S
    Zr2    O35       0.99245      .   S
    Zr26   O35       0.99245      .   S
    Zr27   O36       0.65441      .   S
    Zr11   O36       0.65441      .   S
    Zr26   O37       0.65441      .   S
    Zr10   O37       0.65441      .   S
    Zr24   O38       0.62380      .   S
    Zr10   O38       0.62380      .   S
    Zr25   O39       0.62371      .   S
    Zr11   O39       0.62371      .   S
    Zr7    O40       0.62369      .   S
    Zr17   O40       0.62369      .   S
    Zr7    O41       0.65431      .   S
    Zr19   O41       0.65431      .   S
    Zr6    O42       0.62369      .   S
    Zr16   O42       0.62369      .   S
    Zr6    O43       0.65442      .   S
    Zr18   O43       0.65442      .   S
    Zr19   O44       0.99278      .   S
    Zr1    O44       0.99278      .   S
    Zr18   O45       0.99238      .   S
    Zr0    O45       0.99238      .   S
    Zr1    O46       0.99172      .   S
    Zr15   O46       0.99172      .   S
    Zr0    O47       0.99170      .   S
    Zr14   O47       0.99170      .   S
    Zr14   O48       0.65468      .   S
    Zr4    O48       0.65468      .   S
    Zr15   O49       0.65466      .   S
    Zr5    O49       0.65466      .   S
    Zr12   O50       0.62378      .   S
    Zr4    O50       0.62378      .   S
    Zr13   O51       0.62364      .   S
    Zr5    O51       0.62364      .   S
    N52    O53       4.16806      .   S
    Zr0    O53       4.31157  1_455   S
    N52    O54       4.16842  1_556   S
    Zr2    O54       4.31195      .   S
    N55    O56       4.17871  1_565   S
    Zr2    O56       4.31543      .   S
    N55    O57       4.17880      .   S
    Zr0    O57       4.31549  1_455   S
    N58    O59       1.10459  1_455   S
    Zr11   O59       1.84840      .   S
    N58    O60       1.10458      .   S
    Zr6    O60       1.84840      .   S
    N61    O62       4.16939  1_556   S
    Zr3    O62       4.31311  1_655   S
    N61    O63       4.16709      .   S
    Zr1    O63       4.31035      .   S
    N64    O65       4.17857  1_565   S
    Zr3    O65       4.31528  1_655   S
    N64    O66       4.17887      .   S
    Zr1    O66       4.31581      .   S
    N67    O68       1.10399  1_465   S
    Zr9    O68       1.84728      .   S
    N67    O69       1.10418  1_554   S
    Zr4    O69       1.84757      .   S
    N70    O71       1.10454      .   S
    Zr7    O71       1.84833      .   S
    N70    O72       1.10457      .   S
    Zr10   O72       1.84835      .   S
    N73    O74       1.10412  1_565   S
    Zr8    O74       1.84773      .   S
    N73    O75       1.10407  1_554   S
    Zr5    O75       1.84767      .   S
