# CIF file generated by openbabel 2.4.90, see http://openbabel.sf.net
data_I
_chemical_name_common ''
_cell_length_a 22.207
_cell_length_b 14.008
_cell_length_c 16.175
_cell_angle_alpha 90
_cell_angle_beta 90
_cell_angle_gamma 90
_space_group_name_H-M_alt 'P 1'
_space_group_name_Hall 'P 1'
loop_
    _symmetry_equiv_pos_as_xyz
    x,y,z
loop_
    _atom_site_label
    _atom_site_type_symbol
    _atom_site_fract_x
    _atom_site_fract_y
    _atom_site_fract_z
    _atom_site_occupancy
    Zn0     Zn   0.75000   0.90162   0.99999   1.000
    Zn1     Zn   0.25000   0.09837   0.99999   1.000
    Zn2     Zn   0.75001   0.09843   0.99999   1.000
    Zn3     Zn   0.24999   0.90157   0.00000   1.000
    C4      C    0.33041   0.00181   0.88057   1.000
    C5      C    0.83043   0.99819   0.88058   1.000
    C6      C    0.16959   0.99818   0.88050   1.000
    C7      C    0.66960   0.00182   0.88057   1.000
    C8      C    0.16958   0.00182   0.11944   1.000
    C9      C    0.66959   0.99820   0.11944   1.000
    C10     C    0.33041   0.99817   0.11945   1.000
    C11     C    0.83043   0.00181   0.11943   1.000
    O12     O    0.31487   0.92091   0.90969   1.000
    O13     O    0.81504   0.91709   0.90947   1.000
    O14     O    0.18512   0.07911   0.90969   1.000
    O15     O    0.68497   0.08295   0.90946   1.000
    O16     O    0.18511   0.92091   0.09034   1.000
    O17     O    0.68496   0.91710   0.09055   1.000
    O18     O    0.31488   0.07911   0.09034   1.000
    O19     O    0.81504   0.08294   0.09055   1.000
    O20     O    0.18496   0.08294   0.09054   1.000
    O21     O    0.68513   0.07913   0.09033   1.000
    O22     O    0.31503   0.91707   0.09054   1.000
    O23     O    0.81488   0.92090   0.09033   1.000
    O24     O    0.31504   0.08294   0.90946   1.000
    O25     O    0.81489   0.07913   0.90968   1.000
    O26     O    0.18496   0.91708   0.90947   1.000
    O27     O    0.68513   0.92091   0.90968   1.000
    Ts28    Ts   0.75001   0.85241   0.99999   1.000
    Ts29    Ts   0.25000   0.14759   0.99999   1.000
    Ts30    Ts   0.75001   0.14764   0.99999   1.000
    Ts31    Ts   0.24999   0.85236   0.00000   1.000
    Og32    Og   0.34322   0.00169   0.85514   1.000
    Og33    Og   0.84323   0.99830   0.85515   1.000
    Og34    Og   0.15678   0.99829   0.85510   1.000
    Og35    Og   0.65680   0.00171   0.85514   1.000
    Og36    Og   0.15678   0.00172   0.14486   1.000
    Og37    Og   0.65679   0.99832   0.14487   1.000
    Og38    Og   0.34321   0.99827   0.14488   1.000
    Og39    Og   0.84322   0.00170   0.14486   1.000
loop_
    _geom_bond_atom_site_label_1
    _geom_bond_atom_site_label_2
    _geom_bond_distance
    _geom_bond_site_symmetry_2
    _ccdc_geom_bond_type
    O21    C9        1.27517  1_545   S
    O21    Zn2       2.06978  1_554   S
    O23    C11       1.27483  1_565   S
    O23    Zn0       2.06979  1_554   S
    O18    C10       1.27517  1_545   S
    O18    Zn1       2.06986  1_554   S
    O16    C8        1.27481  1_565   S
    O16    Zn3       2.06992      .   S
    O20    C8        1.27533      .   S
    O20    Zn1       2.06834  1_554   S
    O22    C10       1.27507      .   S
    O22    Zn3       2.06832      .   S
    O19    C11       1.27533      .   S
    O19    Zn2       2.06848  1_554   S
    O17    C9        1.27504      .   S
    O17    Zn0       2.06848  1_554   S
    C6     O26       1.27545      .   S
    C6     O14       1.27563  1_565   S
    C4     O24       1.27535      .   S
    C4     O12       1.27487  1_545   S
    C7     O15       1.27530      .   S
    C7     O27       1.27479  1_545   S
    C5     O13       1.27504      .   S
    C5     O25       1.27514  1_565   S
    O15    Zn2       2.06811      .   S
    O24    Zn1       2.06810      .   S
    O26    Zn3       2.06818  1_556   S
    O13    Zn0       2.06808      .   S
    O27    Zn0       2.06939      .   S
    O25    Zn2       2.06953      .   S
    O14    Zn1       2.06930      .   S
    O12    Zn3       2.06956  1_556   S
    Zn3    Zn1       2.75684  1_564   S
    Zn0    Zn2       2.75690  1_565   S
    Zn0    Ts28      0.68933      .   S
    Zn1    Ts29      0.68938      .   S
    Zn2    Ts30      0.68930      .   S
    Zn3    Ts31      0.68925      .   S
    C4     Og32      0.49996      .   S
    C5     Og33      0.49998      .   S
    C6     Og34      0.49961      .   S
    C7     Og35      0.49998      .   S
    C8     Og36      0.49997      .   S
    C9     Og37      0.49993      .   S
    C10    Og38      0.49994      .   S
    C11    Og39      0.49999      .   S
