# CIF file generated by openbabel 2.4.90, see http://openbabel.sf.net
data_I
_chemical_name_common ''
_cell_length_a 22.207
_cell_length_b 14.008
_cell_length_c 16.175
_cell_angle_alpha 90
_cell_angle_beta 90
_cell_angle_gamma 90
_space_group_name_H-M_alt 'P 1'
_space_group_name_Hall 'P 1'
loop_
    _symmetry_equiv_pos_as_xyz
    x,y,z
loop_
    _atom_site_label
    _atom_site_type_symbol
    _atom_site_fract_x
    _atom_site_fract_y
    _atom_site_fract_z
    _atom_site_occupancy
    N0      N    0.75004   0.50002   0.99997   1.000
    N1      N    0.50001   0.99998   0.50000   1.000
    N2      N    0.24997   0.49999   0.99999   1.000
    N3      N    0.00000   0.00004   0.50001   1.000
    Zr4     Zr   0.75001   0.00002   0.00000   1.000
    O5      O    0.66260   0.99960   0.16440   1.000
    O6      O    0.83741   0.00043   0.16440   1.000
    O7      O    0.66261   0.00042   0.83561   1.000
    O8      O    0.75002   0.83196   0.99999   1.000
    O9      O    0.83741   0.99961   0.83561   1.000
    O10     O    0.75002   0.16807   0.99999   1.000
    Zr11    Zr   0.25000   1.00000   0.00000   1.000
    O12     O    0.16260   0.99960   0.83560   1.000
    O13     O    0.24999   0.16804   1.00000   1.000
    O14     O    0.24999   0.83194   1.00000   1.000
    O15     O    0.16259   0.00043   0.16440   1.000
    O16     O    0.33740   0.99958   0.16440   1.000
    O17     O    0.33740   0.00040   0.83561   1.000
loop_
    _geom_bond_atom_site_label_1
    _geom_bond_atom_site_label_2
    _geom_bond_distance
    _geom_bond_site_symmetry_2
    _ccdc_geom_bond_type
    Zr4    O5        3.29213  1_545   S
    N1     O5        6.51961      .   S
    Zr4    O6        3.29213      .   S
    N3     O6        6.51963  1_455   S
    Zr4    O7        3.29211  1_554   S
    N1     O7        6.51966  1_565   S
    Zr4    O8        2.35407  1_544   S
    N0     O8        4.64987      .   S
    Zr4    O9        3.29210  1_544   S
    N3     O9        6.51958  1_445   S
    Zr4    O10       2.35414  1_554   S
    N0     O10       4.64992      .   S
    Zr11   O12       3.29218  1_554   S
    N3     O12       6.51945  1_545   S
    Zr11   O13       2.35398  1_564   S
    N2     O13       4.64984      .   S
    Zr11   O14       2.35422  1_554   S
    N2     O14       4.64996      .   S
    Zr11   O15       3.29215  1_565   S
    N3     O15       6.51962      .   S
    Zr11   O16       3.29218      .   S
    N1     O16       6.51968      .   S
    Zr11   O17       3.29214  1_564   S
    N1     O17       6.51969  1_565   S
