# CIF file generated by openbabel 2.4.90, see http://openbabel.sf.net
data_I
_chemical_name_common ''
_cell_length_a 11.736
_cell_length_b 14.229
_cell_length_c 14.35
_cell_angle_alpha 76.733
_cell_angle_beta 89.878
_cell_angle_gamma 65.675
_space_group_name_H-M_alt 'P 1'
_space_group_name_Hall 'P 1'
loop_
    _symmetry_equiv_pos_as_xyz
    x,y,z
loop_
    _atom_site_label
    _atom_site_type_symbol
    _atom_site_fract_x
    _atom_site_fract_y
    _atom_site_fract_z
    _atom_site_occupancy
    Zr0     Zr   0.90289   0.53736   0.37407   1.000
    Zr1     Zr   0.43987   0.46254   0.12589   1.000
    Zr2     Zr   0.09712   0.46259   0.62589   1.000
    Zr3     Zr   0.56015   0.53741   0.87406   1.000
    N4      N    0.90455   0.03676   0.37594   1.000
    O5      O    0.90039   0.83046   0.37448   1.000
    O6      O    0.90773   0.24302   0.37750   1.000
    N7      N    0.05918   0.03675   0.87594   1.000
    O8      O    0.84970   0.24300   0.87750   1.000
    O9      O    0.26960   0.83052   0.87454   1.000
    N10     N    0.09548   0.96346   0.62401   1.000
    O11     O    0.09963   0.16962   0.62548   1.000
    O12     O    0.09229   0.75706   0.62245   1.000
    N13     N    0.39950   0.38913   0.48638   1.000
    O14     O    0.41898   0.42356   0.34609   1.000
    O15     O    0.20231   0.44844   0.44936   1.000
    N16     N    0.78874   0.61083   0.01337   1.000
    O17     O    0.84271   0.57648   0.15372   1.000
    O18     O    0.65068   0.55149   0.05039   1.000
    N19     N    0.94084   0.96348   0.12401   1.000
    O20     O    0.73042   0.16957   0.12541   1.000
    O21     O    0.15032   0.75709   0.12245   1.000
    N22     N    0.60052   0.61082   0.51357   1.000
    O23     O    0.79771   0.55151   0.55059   1.000
    O24     O    0.58105   0.57638   0.65386   1.000
    N25     N    0.21128   0.38911   0.98658   1.000
    O26     O    0.15731   0.42347   0.84623   1.000
    O27     O    0.34934   0.44847   0.94956   1.000
    O28     O    0.30194   0.42103   0.02843   1.000
    O29     O    0.69808   0.57892   0.97152   1.000
    O30     O    0.27681   0.42105   0.52825   1.000
    O31     O    0.72321   0.57889   0.47170   1.000
loop_
    _geom_bond_atom_site_label_1
    _geom_bond_atom_site_label_2
    _geom_bond_distance
    _geom_bond_site_symmetry_2
    _ccdc_geom_bond_type
    N4     O5        2.96062  1_545   S
    Zr0    O5        4.15995      .   S
    N4     O6        2.95569      .   S
    Zr0    O6        4.15399      .   S
    N7     O8        2.95690  1_455   S
    Zr3    O8        4.15663      .   S
    N7     O9        2.96082  1_545   S
    Zr3    O9        4.16161      .   S
    N10    O11       2.95871  1_565   S
    Zr2    O11       4.15804      .   S
    N10    O12       2.95760      .   S
    Zr2    O12       4.15590      .   S
    N13    O14       1.99573      .   S
    Zr1    O14       3.10754      .   S
    N13    O15       2.13083      .   S
    Zr0    O15       3.29278  1_655   S
    N16    O17       1.99873      .   S
    Zr0    O17       3.11197      .   S
    N16    O18       2.13039      .   S
    Zr1    O18       3.29169      .   S
    N19    O20       2.95954  1_565   S
    Zr1    O20       4.16030      .   S
    N19    O21       2.95819  1_655   S
    Zr1    O21       4.15794      .   S
    N22    O23       2.13079      .   S
    Zr2    O23       3.29274  1_455   S
    N22    O24       1.99570      .   S
    Zr3    O24       3.10752      .   S
    N25    O26       1.99872      .   S
    Zr2    O26       3.11194      .   S
    N25    O27       2.13041      .   S
    Zr3    O27       3.29175      .   S
    N25    O28       1.49177  1_556   S
    Zr1    O28       2.47003      .   S
    Zr3    O29       2.47001      .   S
    N16    O29       1.49176  1_554   S
    Zr2    O30       2.46977      .   S
    N13    O30       1.49111      .   S
    Zr0    O31       2.46972      .   S
    N22    O31       1.49107      .   S
