# CIF file generated by openbabel 2.4.90, see http://openbabel.sf.net
data_I
_chemical_name_common ''
_cell_length_a 11.804
_cell_length_b 11.438
_cell_length_c 27.327
_cell_angle_alpha 89.971
_cell_angle_beta 90.057
_cell_angle_gamma 82.266
_space_group_name_H-M_alt 'P 1'
_space_group_name_Hall 'P 1'
loop_
    _symmetry_equiv_pos_as_xyz
    x,y,z
loop_
    _atom_site_label
    _atom_site_type_symbol
    _atom_site_fract_x
    _atom_site_fract_y
    _atom_site_fract_z
    _atom_site_occupancy
    C0      C    0.89479   0.81320   0.73170   1.000
    C1      C    0.60936   0.67832   0.08202   1.000
    C2      C    0.60433   0.68678   0.73163   1.000
    C3      C    0.89103   0.82175   0.08204   1.000
    C4      C    0.81890   0.89292   0.22860   1.000
    C5      C    0.67056   0.60994   0.58531   1.000
    C6      C    0.68171   0.60709   0.22865   1.000
    C7      C    0.82888   0.88798   0.58509   1.000
    C8      C    0.18106   0.10711   0.77133   1.000
    C9      C    0.32940   0.39007   0.41469   1.000
    C10     C    0.31824   0.39292   0.77135   1.000
    C11     C    0.17110   0.11203   0.41491   1.000
    C12     C    0.10516   0.18682   0.26830   1.000
    C13     C    0.39058   0.32169   0.91798   1.000
    C14     C    0.39562   0.31324   0.26837   1.000
    C15     C    0.10892   0.17827   0.91796   1.000
