# CIF file generated by openbabel 2.4.90, see http://openbabel.sf.net
data_I
_chemical_name_common ''
_cell_length_a 11.804
_cell_length_b 11.438
_cell_length_c 27.327
_cell_angle_alpha 89.971
_cell_angle_beta 90.057
_cell_angle_gamma 82.266
_space_group_name_H-M_alt 'P 1'
_space_group_name_Hall 'P 1'
loop_
    _symmetry_equiv_pos_as_xyz
    x,y,z
loop_
    _atom_site_label
    _atom_site_type_symbol
    _atom_site_fract_x
    _atom_site_fract_y
    _atom_site_fract_z
    _atom_site_occupancy
    Zr0     Zr   0.75016   0.75008   0.15681   1.000
    Zr1     Zr   0.74956   0.74974   0.66217   1.000
    Zr2     Zr   0.25039   0.25028   0.33783   1.000
    Zr3     Zr   0.24978   0.24994   0.84319   1.000
    Zr4     Zr   0.24994   0.74994   0.90710   1.000
    Zr5     Zr   0.75033   0.24980   0.40710   1.000
    Zr6     Zr   0.24966   0.75020   0.59286   1.000
    Zr7     Zr   0.75001   0.25007   0.09290   1.000
    Zr8     Zr   0.89479   0.81320   0.73170   1.000
    Zr9     Zr   0.60936   0.67832   0.08202   1.000
    Zr10    Zr   0.60433   0.68678   0.73163   1.000
    Zr11    Zr   0.89103   0.82175   0.08204   1.000
    Zr12    Zr   0.81890   0.89292   0.22860   1.000
    Zr13    Zr   0.67056   0.60994   0.58531   1.000
    Zr14    Zr   0.68171   0.60709   0.22865   1.000
    Zr15    Zr   0.82888   0.88798   0.58509   1.000
    Zr16    Zr   0.18106   0.10711   0.77133   1.000
    Zr17    Zr   0.32940   0.39007   0.41469   1.000
    Zr18    Zr   0.31824   0.39292   0.77135   1.000
    Zr19    Zr   0.17110   0.11203   0.41491   1.000
    Zr20    Zr   0.10516   0.18682   0.26830   1.000
    Zr21    Zr   0.39058   0.32169   0.91798   1.000
    Zr22    Zr   0.39562   0.31324   0.26837   1.000
    Zr23    Zr   0.10892   0.17827   0.91796   1.000
    Zr24    Zr   0.88148   0.71706   0.70845   1.000
    Zr25    Zr   0.85178   0.91505   0.72083   1.000
    Zr26    Zr   0.62424   0.77069   0.10624   1.000
    Zr27    Zr   0.65760   0.57464   0.08748   1.000
    Zr28    Zr   0.61721   0.78290   0.70824   1.000
    Zr29    Zr   0.64781   0.58502   0.72092   1.000
    Zr30    Zr   0.87609   0.72937   0.10627   1.000
    Zr31    Zr   0.84267   0.92539   0.08742   1.000
    Zr32    Zr   0.72620   0.88518   0.20393   1.000
    Zr33    Zr   0.91689   0.84517   0.21870   1.000
    Zr34    Zr   0.75925   0.62113   0.61079   1.000
    Zr35    Zr   0.57036   0.66128   0.58982   1.000
    Zr36    Zr   0.77427   0.61484   0.20389   1.000
    Zr37    Zr   0.58364   0.65487   0.21873   1.000
    Zr38    Zr   0.74012   0.87770   0.61061   1.000
    Zr39    Zr   0.92869   0.83557   0.58961   1.000
    Zr40    Zr   0.27375   0.11482   0.79608   1.000
    Zr41    Zr   0.08306   0.15483   0.78128   1.000
    Zr42    Zr   0.24071   0.37888   0.38921   1.000
    Zr43    Zr   0.42960   0.33873   0.41018   1.000
    Zr44    Zr   0.22568   0.38519   0.79611   1.000
    Zr45    Zr   0.41631   0.34515   0.78127   1.000
    Zr46    Zr   0.25986   0.12230   0.38939   1.000
    Zr47    Zr   0.07129   0.16443   0.41039   1.000
    Zr48    Zr   0.11847   0.28296   0.29155   1.000
    Zr49    Zr   0.14816   0.08496   0.27917   1.000
    Zr50    Zr   0.37571   0.22932   0.89376   1.000
    Zr51    Zr   0.34235   0.42537   0.91252   1.000
    Zr52    Zr   0.38274   0.21712   0.29176   1.000
    Zr53    Zr   0.35213   0.41500   0.27908   1.000
    Zr54    Zr   0.12385   0.27065   0.89373   1.000
    Zr55    Zr   0.15727   0.07462   0.91258   1.000
    O56     O    0.63348   0.62648   0.08475   1.000
    O57     O    0.61680   0.72450   0.09413   1.000
    O58     O    0.86685   0.87357   0.08473   1.000
    O59     O    0.88356   0.77556   0.09416   1.000
    O60     O    0.68720   0.76038   0.13153   1.000
    O61     O    0.81313   0.73972   0.13154   1.000
    O62     O    0.76221   0.68246   0.18035   1.000
    O63     O    0.73818   0.81763   0.18037   1.000
    O64     O    0.72799   0.61096   0.21627   1.000
    O65     O    0.77255   0.88905   0.21627   1.000
    O66     O    0.86789   0.86904   0.22365   1.000
    O67     O    0.63267   0.63098   0.22369   1.000
    O68     O    0.12666   0.13589   0.27374   1.000
    O69     O    0.11181   0.23489   0.27993   1.000
    O70     O    0.37388   0.36412   0.27373   1.000
    O71     O    0.38918   0.26518   0.28007   1.000
    O72     O    0.18443   0.26662   0.31469   1.000
    O73     O    0.31657   0.23370   0.31480   1.000
    O74     O    0.24555   0.31458   0.36352   1.000
    O75     O    0.25513   0.18629   0.36361   1.000
    O76     O    0.28505   0.38448   0.40195   1.000
    O77     O    0.21548   0.11716   0.40215   1.000
    O78     O    0.37950   0.36440   0.41244   1.000
    O79     O    0.12119   0.13823   0.41265   1.000
    O80     O    0.87879   0.86178   0.58735   1.000
    O81     O    0.78450   0.88284   0.59785   1.000
    O82     O    0.62046   0.63561   0.58757   1.000
    O83     O    0.71491   0.61554   0.59805   1.000
    O84     O    0.74484   0.81372   0.63639   1.000
    O85     O    0.75441   0.68544   0.63648   1.000
    O86     O    0.68339   0.76632   0.68521   1.000
    O87     O    0.81552   0.73340   0.68531   1.000
    O88     O    0.61077   0.73484   0.71994   1.000
    O89     O    0.88814   0.76513   0.72008   1.000
    O90     O    0.87329   0.86412   0.72627   1.000
    O91     O    0.62607   0.63590   0.72628   1.000
    O92     O    0.13206   0.13097   0.77631   1.000
    O93     O    0.22740   0.11097   0.78371   1.000
    O94     O    0.36727   0.36903   0.77631   1.000
    O95     O    0.27196   0.38905   0.78373   1.000
    O96     O    0.26177   0.18238   0.81964   1.000
    O97     O    0.23773   0.31756   0.81965   1.000
    O98     O    0.18682   0.26030   0.86846   1.000
    O99     O    0.31275   0.23963   0.86848   1.000
    O100    O    0.11638   0.22446   0.90585   1.000
    O101    O    0.38315   0.27551   0.90587   1.000
    O102    O    0.36646   0.37353   0.91525   1.000
    O103    O    0.13310   0.12645   0.91527   1.000
    N104    N    0.94947   0.21897   0.18399   1.000
    O105    O    0.88044   0.23015   0.15185   1.000
    O106    O    0.00782   0.20735   0.21505   1.000
    N107    N    0.21379   0.95215   0.68528   1.000
    O108    O    0.20184   0.01020   0.71701   1.000
    O109    O    0.22639   0.88258   0.65258   1.000
    N110    N    0.55108   0.28123   0.18401   1.000
    O111    O    0.49284   0.29280   0.21511   1.000
    O112    O    0.61994   0.27004   0.15188   1.000
    N113    N    0.44626   0.71478   0.00043   1.000
    O114    O    0.50625   0.70194   0.03094   1.000
    O115    O    0.37869   0.72713   0.96742   1.000
    N116    N    0.79098   0.05100   0.50169   1.000
    O117    O    0.80450   0.99110   0.53286   1.000
    O118    O    0.77696   0.11909   0.46814   1.000
    N119    N    0.70896   0.44787   0.50175   1.000
    O120    O    0.72321   0.38006   0.46817   1.000
    O121    O    0.69528   0.50739   0.53299   1.000
    N122    N    0.44887   0.71879   0.81590   1.000
    O123    O    0.38002   0.72998   0.84807   1.000
    O124    O    0.50712   0.70722   0.78485   1.000
    N125    N    0.29102   0.55214   0.49824   1.000
    O126    O    0.30470   0.49262   0.46700   1.000
    O127    O    0.27678   0.61994   0.53181   1.000
    N128    N    0.05048   0.78105   0.81600   1.000
    O129    O    0.99213   0.79266   0.78494   1.000
    O130    O    0.11951   0.76986   0.84813   1.000
    N131    N    0.94398   0.21479   0.99944   1.000
    O132    O    0.00486   0.20191   0.96897   1.000
    O133    O    0.87750   0.22717   0.03249   1.000
    N134    N    0.20901   0.94666   0.49830   1.000
    O135    O    0.22303   0.87975   0.53184   1.000
    O136    O    0.19548   0.00773   0.46713   1.000
    N137    N    0.05416   0.78522   0.00055   1.000
    O138    O    0.99418   0.79810   0.03103   1.000
    O139    O    0.12155   0.77283   0.96751   1.000
    N140    N    0.78619   0.04786   0.31472   1.000
    O141    O    0.77359   0.11743   0.34741   1.000
    O142    O    0.79812   0.98981   0.28297   1.000
    N143    N    0.55370   0.28522   0.99957   1.000
    O144    O    0.49371   0.29807   0.96906   1.000
    O145    O    0.62126   0.27288   0.03258   1.000
    N146    N    0.71474   0.45210   0.31476   1.000
    O147    O    0.72727   0.38243   0.34744   1.000
    O148    O    0.70271   0.51016   0.28300   1.000
    N149    N    0.28523   0.54792   0.68524   1.000
    O150    O    0.27270   0.61759   0.65255   1.000
    O151    O    0.29725   0.48986   0.71700   1.000
loop_
    _geom_bond_atom_site_label_1
    _geom_bond_atom_site_label_2
    _geom_bond_distance
    _geom_bond_site_symmetry_2
    _ccdc_geom_bond_type
    Zr9    O56       0.62664      .   S
    Zr27   O56       0.62664      .   S
    Zr9    O57       0.63944      .   S
    Zr26   O57       0.63944      .   S
    Zr11   O58       0.62669      .   S
    Zr31   O58       0.62669      .   S
    Zr11   O59       0.63947      .   S
    Zr30   O59       0.63947      .   S
    Zr26   O60       1.00944      .   S
    Zr0    O60       1.00944      .   S
    Zr30   O61       1.01032      .   S
    Zr0    O61       1.01032      .   S
    Zr0    O62       1.00095      .   S
    Zr36   O62       1.00095      .   S
    Zr0    O63       1.00141      .   S
    Zr32   O63       1.00141      .   S
    Zr36   O64       0.64940      .   S
    Zr14   O64       0.64940      .   S
    Zr32   O65       0.64893      .   S
    Zr12   O65       0.64893      .   S
    Zr33   O66       0.62050      .   S
    Zr12   O66       0.62050      .   S
    Zr37   O67       0.62070      .   S
    Zr14   O67       0.62070      .   S
    Zr20   O68       0.62117      .   S
    Zr49   O68       0.62117      .   S
    Zr20   O69       0.64896      .   S
    Zr48   O69       0.64896      .   S
    Zr22   O70       0.62121      .   S
    Zr53   O70       0.62121      .   S
    Zr22   O71       0.64901      .   S
    Zr52   O71       0.64901      .   S
    Zr48   O72       1.00037      .   S
    Zr2    O72       1.00037      .   S
    Zr52   O73       1.00182      .   S
    Zr2    O73       1.00182      .   S
    Zr2    O74       1.01308      .   S
    Zr42   O74       1.01308      .   S
    Zr2    O75       1.01167      .   S
    Zr46   O75       1.01167      .   S
    Zr42   O76       0.63873      .   S
    Zr17   O76       0.63873      .   S
    Zr46   O77       0.63885      .   S
    Zr19   O77       0.63885      .   S
    Zr43   O78       0.62697      .   S
    Zr17   O78       0.62697      .   S
    Zr47   O79       0.62693      .   S
    Zr19   O79       0.62693      .   S
    Zr15   O80       0.62693      .   S
    Zr39   O80       0.62693      .   S
    Zr15   O81       0.63887      .   S
    Zr38   O81       0.63887      .   S
    Zr13   O82       0.62697      .   S
    Zr35   O82       0.62697      .   S
    Zr13   O83       0.63872      .   S
    Zr34   O83       0.63872      .   S
    Zr38   O84       1.01162      .   S
    Zr1    O84       1.01162      .   S
    Zr34   O85       1.01309      .   S
    Zr1    O85       1.01309      .   S
    Zr1    O86       1.00181      .   S
    Zr28   O86       1.00181      .   S
    Zr1    O87       1.00038      .   S
    Zr24   O87       1.00038      .   S
    Zr28   O88       0.64901      .   S
    Zr10   O88       0.64901      .   S
    Zr24   O89       0.64896      .   S
    Zr8    O89       0.64896      .   S
    Zr25   O90       0.62118      .   S
    Zr8    O90       0.62118      .   S
    Zr29   O91       0.62120      .   S
    Zr10   O91       0.62120      .   S
    Zr16   O92       0.62062      .   S
    Zr41   O92       0.62062      .   S
    Zr16   O93       0.64942      .   S
    Zr40   O93       0.64942      .   S
    Zr18   O94       0.62069      .   S
    Zr45   O94       0.62069      .   S
    Zr18   O95       0.64936      .   S
    Zr44   O95       0.64936      .   S
    Zr40   O96       1.00136      .   S
    Zr3    O96       1.00136      .   S
    Zr44   O97       1.00100      .   S
    Zr3    O97       1.00100      .   S
    Zr3    O98       1.01033      .   S
    Zr54   O98       1.01033      .   S
    Zr3    O99       1.00945      .   S
    Zr50   O99       1.00945      .   S
    Zr54   O100      0.63948      .   S
    Zr23   O100      0.63948      .   S
    Zr50   O101      0.63945      .   S
    Zr21   O101      0.63945      .   S
    Zr51   O102      0.62664      .   S
    Zr21   O102      0.62664      .   S
    Zr55   O103      0.62668      .   S
    Zr23   O103      0.62668      .   S
    N104   O105      1.19263      .   S
    Zr7    O105      2.21747      .   S
    N104   O106      1.08934  1_655   S
    Zr20   O106      1.84833      .   S
    N107   O108      1.09010  1_565   S
    Zr16   O108      1.84962      .   S
    N107   O109      1.19287      .   S
    Zr6    O109      2.21880      .   S
    N110   O111      1.09055      .   S
    Zr22   O111      1.84977      .   S
    N110   O112      1.19207      .   S
    Zr7    O112      2.21776      .   S
    N113   O114      1.09019      .   S
    Zr9    O114      1.84689      .   S
    N113   O115      1.19909  1_554   S
    Zr4    O115      2.23230      .   S
    N116   O117      1.09109  1_545   S
    Zr15   O117      1.84853      .   S
    N116   O118      1.19931      .   S
    Zr5    O118      2.23313      .   S
    N119   O120      1.19894      .   S
    Zr5    O120      2.23226      .   S
    N119   O121      1.09080      .   S
    Zr13   O121      1.84807      .   S
    N122   O123      1.19305      .   S
    Zr4    O123      2.21873      .   S
    N122   O124      1.08952      .   S
    Zr10   O124      1.84872      .   S
    N125   O126      1.09069      .   S
    Zr17   O126      1.84795      .   S
    N125   O127      1.19882      .   S
    Zr6    O127      2.23174      .   S
    N128   O129      1.08923  1_455   S
    Zr8    O129      1.84822      .   S
    N128   O130      1.19223      .   S
    Zr4    O130      2.21807      .   S
    N131   O132      1.09739  1_655   S
    Zr23   O132      1.85445      .   S
    N131   O133      1.19298  1_556   S
    Zr7    O133      2.22670      .   S
    N134   O135      1.19087      .   S
    Zr6    O135      2.22399      .   S
    N134   O136      1.09911  1_565   S
    Zr19   O136      1.85664      .   S
    N137   O138      1.09076  1_455   S
    Zr11   O138      1.84775      .   S
    N137   O139      1.19970  1_554   S
    Zr4    O139      2.23370      .   S
    N140   O141      1.19269      .   S
    Zr5    O141      2.21819      .   S
    N140   O142      1.09041  1_545   S
    Zr12   O142      1.85066      .   S
    N143   O144      1.09020      .   S
    Zr21   O144      1.84691      .   S
    N143   O145      1.19909  1_556   S
    Zr7    O145      2.23230      .   S
    N146   O147      1.19254      .   S
    Zr5    O147      2.21774      .   S
    N146   O148      1.08993      .   S
    Zr14   O148      1.84936      .   S
    N149   O150      1.19269      .   S
    Zr6    O150      2.21830      .   S
    N149   O151      1.08996      .   S
    Zr18   O151      1.84944      .   S
