# CIF file generated by openbabel 2.4.90, see http://openbabel.sf.net
data_I
_chemical_name_common ''
_cell_length_a 15.494
_cell_length_b 15.52
_cell_length_c 15.511
_cell_angle_alpha 74.375
_cell_angle_beta 74.601
_cell_angle_gamma 74.551
_space_group_name_H-M_alt 'P 1'
_space_group_name_Hall 'P 1'
loop_
    _symmetry_equiv_pos_as_xyz
    x,y,z
loop_
    _atom_site_label
    _atom_site_type_symbol
    _atom_site_fract_x
    _atom_site_fract_y
    _atom_site_fract_z
    _atom_site_occupancy
    H0      H    0.52785   0.99104   0.29704   1.000
    H1      H    0.29721   0.52700   0.99163   1.000
    H2      H    0.99144   0.29726   0.52786   1.000
    H3      H    0.00881   0.47230   0.70250   1.000
    H4      H    0.47197   0.70296   0.00876   1.000
    H5      H    0.70274   0.00852   0.47277   1.000
    H6      H    0.47230   0.00894   0.70262   1.000
    H7      H    0.70250   0.47305   0.00827   1.000
    H8      H    0.00859   0.70285   0.47199   1.000
    H9      H    0.99095   0.52782   0.29727   1.000
    H10     H    0.52781   0.29716   0.99116   1.000
    H11     H    0.29751   0.99154   0.52700   1.000
    H12     H    0.26495   0.97693   0.26465   1.000
    H13     H    0.26496   0.26471   0.97702   1.000
    H14     H    0.97664   0.26534   0.26540   1.000
    H15     H    0.02336   0.73468   0.73448   1.000
    H16     H    0.73491   0.73534   0.02269   1.000
    H17     H    0.73508   0.02322   0.73517   1.000
    C18     C    0.40063   0.98310   0.27134   1.000
    C19     C    0.45636   0.98825   0.32661   1.000
    C20     C    0.43888   0.98436   0.17189   1.000
    C21     C    0.27152   0.40011   0.98347   1.000
    C22     C    0.32688   0.45569   0.98862   1.000
    C23     C    0.17194   0.43840   0.98477   1.000
    C24     C    0.98319   0.27174   0.40086   1.000
    C25     C    0.98834   0.32696   0.45641   1.000
    C26     C    0.98466   0.17216   0.43912   1.000
    C27     C    0.01696   0.59924   0.72810   1.000
    C28     C    0.01175   0.54373   0.67286   1.000
    C29     C    0.01548   0.56098   0.82774   1.000
    C30     C    0.59922   0.72864   0.01661   1.000
    C31     C    0.54349   0.67339   0.01151   1.000
    C32     C    0.56095   0.82805   0.01544   1.000
    C33     C    0.72847   0.01677   0.59970   1.000
    C34     C    0.67311   0.01155   0.54410   1.000
    C35     C    0.82803   0.01546   0.56142   1.000
    C36     C    0.59945   0.01696   0.72841   1.000
    C37     C    0.54378   0.01177   0.67309   1.000
    C38     C    0.56114   0.01569   0.82786   1.000
    C39     C    0.72828   0.59993   0.01634   1.000
    C40     C    0.67287   0.54437   0.01124   1.000
    C41     C    0.82785   0.56162   0.01506   1.000
    C42     C    0.01683   0.72832   0.59901   1.000
    C43     C    0.01165   0.67313   0.54340   1.000
    C44     C    0.01545   0.82789   0.56076   1.000
    C45     C    0.98292   0.40083   0.27177   1.000
    C46     C    0.98809   0.45637   0.32699   1.000
    C47     C    0.98435   0.43907   0.17214   1.000
    C48     C    0.40062   0.27143   0.98320   1.000
    C49     C    0.45630   0.32671   0.98830   1.000
    C50     C    0.43895   0.17203   0.98436   1.000
    C51     C    0.27167   0.98332   0.40010   1.000
    C52     C    0.32708   0.98851   0.45560   1.000
    C53     C    0.17212   0.98461   0.43840   1.000
    C54     C    0.47623   0.99704   0.47567   1.000
    C55     C    0.30831   0.98024   0.30795   1.000
    C56     C    0.42022   0.99085   0.41958   1.000
    C57     C    0.47601   0.47583   0.99706   1.000
    C58     C    0.30827   0.30801   0.98034   1.000
    C59     C    0.42007   0.41966   0.99095   1.000
    C60     C    0.99691   0.47606   0.47600   1.000
    C61     C    0.97999   0.30858   0.30860   1.000
    C62     C    0.99069   0.42008   0.42011   1.000
    C63     C    0.00296   0.52408   0.52380   1.000
    C64     C    0.01998   0.69147   0.69126   1.000
    C65     C    0.00919   0.58004   0.57974   1.000
    C66     C    0.52370   0.52428   0.00288   1.000
    C67     C    0.69158   0.69204   0.01940   1.000
    C68     C    0.57967   0.58043   0.00890   1.000
    C69     C    0.52402   0.00298   0.52400   1.000
    C70     C    0.69176   0.01987   0.69184   1.000
    C71     C    0.57998   0.00918   0.58013   1.000
    O72     O    0.52197   0.99315   0.14109   1.000
    O73     O    0.38493   0.97800   0.12528   1.000
    O74     O    0.14123   0.52134   0.99357   1.000
    O75     O    0.12515   0.38466   0.97846   1.000
    O76     O    0.99400   0.14101   0.52205   1.000
    O77     O    0.97801   0.12581   0.38527   1.000
    O78     O    0.00638   0.47803   0.85880   1.000
    O79     O    0.02204   0.61478   0.87419   1.000
    O80     O    0.47787   0.85896   0.00656   1.000
    O81     O    0.61493   0.87454   0.02189   1.000
    O82     O    0.85867   0.00673   0.47842   1.000
    O83     O    0.87486   0.02170   0.61520   1.000
    O84     O    0.47806   0.00687   0.85860   1.000
    O85     O    0.61506   0.02206   0.87450   1.000
    O86     O    0.85856   0.47868   0.00626   1.000
    O87     O    0.87464   0.61534   0.02140   1.000
    O88     O    0.00628   0.85902   0.47778   1.000
    O89     O    0.02204   0.87423   0.61465   1.000
    O90     O    0.99337   0.52204   0.14100   1.000
    O91     O    0.97787   0.38523   0.12570   1.000
    O92     O    0.52204   0.14114   0.99320   1.000
    O93     O    0.38500   0.12551   0.97792   1.000
    O94     O    0.14151   0.99328   0.52145   1.000
    O95     O    0.12527   0.97839   0.38466   1.000
loop_
    _geom_bond_atom_site_label_1
    _geom_bond_atom_site_label_2
    _geom_bond_distance
    _geom_bond_site_symmetry_2
    _ccdc_geom_bond_type
    C66    C68       1.41766      .   S
    C66    C57       1.21968  1_554   S
    O86    C41       1.27904      .   S
    O80    C32       1.27897      .   S
    H7     C40       1.08799      .   S
    H4     C31       1.08810      .   S
    C68    C40       1.40916      .   S
    C68    C31       1.40920      .   S
    C40    C39       1.39788      .   S
    C31    C30       1.39811      .   S
    C41    C39       1.49521      .   S
    C41    O87       1.27842      .   S
    C32    C30       1.49512      .   S
    C32    O81       1.27850      .   S
    C39    C67       1.39940      .   S
    C30    C67       1.39953      .   S
    C67    H16       1.08730      .   S
    O73    C20       1.27839      .   S
    O91    C47       1.27849      .   S
    O90    C47       1.27906      .   S
    O72    C20       1.27908      .   S
    C20    C18       1.49519      .   S
    C47    C45       1.49522      .   S
    H12    C55       1.08707      .   S
    H14    C61       1.08686      .   S
    C18    C55       1.39973      .   S
    C18    C19       1.39785      .   S
    C45    C61       1.39941      .   S
    C45    C46       1.39789      .   S
    H0     C19       1.08811      .   S
    H9     C46       1.08812      .   S
    C55    C51       1.39965      .   S
    C61    C24       1.39968      .   S
    C19    C56       1.40896      .   S
    C46    C62       1.40914      .   S
    O95    C53       1.27796      .   S
    O77    C26       1.27859      .   S
    C51    C53       1.49517      .   S
    C51    C52       1.39699      .   S
    C24    C26       1.49522      .   S
    C24    C25       1.39791      .   S
    C56    C52       1.40876      .   S
    C56    C54       1.41762      .   S
    C62    C25       1.40914      .   S
    C62    C60       1.41785      .   S
    C53    O94       1.27961      .   S
    C26    O76       1.27900      .   S
    C52    H11       1.08892      .   S
    C25    H2        1.08825      .   S
    H8     C43       1.08760      .   S
    H5     C34       1.08805      .   S
    C54    C69       1.21944  1_565   S
    C60    C63       1.21892  1_655   S
    O88    C44       1.27903      .   S
    O82    C35       1.27915      .   S
    C63    C65       1.41826      .   S
    C69    C71       1.41762      .   S
    C43    C65       1.40921      .   S
    C43    C42       1.39841      .   S
    C34    C71       1.40884      .   S
    C34    C33       1.39769      .   S
    C44    C42       1.49518      .   S
    C44    O89       1.27858      .   S
    C35    C33       1.49525      .   S
    C35    O83       1.27836      .   S
    C65    C28       1.40907      .   S
    C71    C37       1.40890      .   S
    C42    C64       1.39939      .   S
    C33    C70       1.39969      .   S
    C28    H3        1.08796      .   S
    C28    C27       1.39791      .   S
    C37    H6        1.08812      .   S
    C37    C36       1.39793      .   S
    C64    C27       1.39946      .   S
    C64    H15       1.08701      .   S
    C70    C36       1.39980      .   S
    C70    H17       1.08714      .   S
    C27    C29       1.49527      .   S
    C36    C38       1.49526      .   S
    C29    O78       1.27899      .   S
    C29    O79       1.27852      .   S
    C38    O84       1.27902      .   S
    C38    O85       1.27842      .   S
    H13    C58       1.08716      .   S
    O93    C50       1.27850      .   S
    O75    C23       1.27836      .   S
    C58    C48       1.39968      .   S
    C58    C21       1.39952      .   S
    C48    C50       1.49524      .   S
    C48    C49       1.39774      .   S
    C21    C23       1.49521      .   S
    C21    C22       1.39784      .   S
    C50    O92       1.27890      .   S
    C23    O74       1.27906      .   S
    C49    C59       1.40923      .   S
    C49    H10       1.08828      .   S
    C22    C59       1.40897      .   S
    C22    H1        1.08802      .   S
    C59    C57       1.41806      .   S
