# CIF file generated by openbabel 2.4.90, see http://openbabel.sf.net
data_I
_chemical_name_common ''
_cell_length_a 15.494
_cell_length_b 15.52
_cell_length_c 15.511
_cell_angle_alpha 74.375
_cell_angle_beta 74.601
_cell_angle_gamma 74.551
_space_group_name_H-M_alt 'P 1'
_space_group_name_Hall 'P 1'
loop_
    _symmetry_equiv_pos_as_xyz
    x,y,z
loop_
    _atom_site_label
    _atom_site_type_symbol
    _atom_site_fract_x
    _atom_site_fract_y
    _atom_site_fract_z
    _atom_site_occupancy
    Cu0     Cu   0.00849   0.57355   0.00813   1.000
    Cu1     Cu   0.00876   0.00811   0.57352   1.000
    Cu2     Cu   0.99129   0.42648   0.99175   1.000
    Cu3     Cu   0.42628   0.99173   0.99144   1.000
    Cu4     Cu   0.99141   0.99192   0.42635   1.000
    Cu5     Cu   0.57368   0.00835   0.00832   1.000
loop_
    _geom_bond_atom_site_label_1
    _geom_bond_atom_site_label_2
    _geom_bond_distance
    _geom_bond_site_symmetry_2
    _ccdc_geom_bond_type
    Cu5    Cu3       2.45327  1_544   S
    Cu0    Cu2       2.45314  1_454   S
    Cu1    Cu4       2.45303  1_445   S
