# CIF file generated by openbabel 2.4.90, see http://openbabel.sf.net
data_I
_chemical_name_common ''
_cell_length_a 15.494
_cell_length_b 15.52
_cell_length_c 15.511
_cell_angle_alpha 74.375
_cell_angle_beta 74.601
_cell_angle_gamma 74.551
_space_group_name_H-M_alt 'P 1'
_space_group_name_Hall 'P 1'
loop_
    _symmetry_equiv_pos_as_xyz
    x,y,z
loop_
    _atom_site_label
    _atom_site_type_symbol
    _atom_site_fract_x
    _atom_site_fract_y
    _atom_site_fract_z
    _atom_site_occupancy
    N0      N    0.49991   0.50003   0.99991   1.000
    N1      N    0.99997   0.50004   0.49993   1.000
    N2      N    0.50006   0.00003   0.49988   1.000
    Zr3     Zr   0.00008   0.00002   0.49994   1.000
    Zr4     Zr   0.49998   0.00004   0.99988   1.000
    Zr5     Zr   0.99989   0.50001   0.99994   1.000
    O6      O    0.85841   0.00180   0.50578   1.000
    O7      O    0.14174   0.99825   0.49406   1.000
    O8      O    0.99830   0.14170   0.49415   1.000
    O9      O    0.00182   0.85835   0.50572   1.000
    O10     O    0.50582   0.00184   0.85821   1.000
    O11     O    0.49418   0.99823   0.14154   1.000
    O12     O    0.50576   0.85837   0.00168   1.000
    O13     O    0.49415   0.14170   0.99810   1.000
    O14     O    0.14156   0.49414   0.99819   1.000
    O15     O    0.85823   0.50589   0.00167   1.000
    O16     O    0.00170   0.50582   0.85826   1.000
    O17     O    0.99813   0.49422   0.14161   1.000
loop_
    _geom_bond_atom_site_label_1
    _geom_bond_atom_site_label_2
    _geom_bond_distance
    _geom_bond_site_symmetry_2
    _ccdc_geom_bond_type
    Zr3    O6        2.16577  1_455   S
    N2     O6        5.58475      .   S
    Zr3    O7        2.16551  1_545   S
    N2     O7        5.58398  1_545   S
    Zr3    O8        2.16940  1_455   S
    N1     O8        5.59328      .   S
    Zr3    O9        2.16949  1_545   S
    N1     O9        5.59365  1_655   S
    N2     O10       5.59020      .   S
    Zr4    O10       2.16797      .   S
    N2     O11       5.59071  1_545   S
    Zr4    O11       2.16805  1_546   S
    N0     O12       5.59389  1_556   S
    Zr4    O12       2.16932  1_546   S
    N0     O13       5.59348      .   S
    Zr4    O13       2.16919      .   S
    N0     O14       5.58450      .   S
    Zr5    O14       2.16565  1_655   S
    N0     O15       5.58426  1_556   S
    Zr5    O15       2.16560  1_556   S
    N1     O16       5.59016  1_655   S
    Zr5    O16       2.16809  1_655   S
    N1     O17       5.59052      .   S
    Zr5    O17       2.16812  1_556   S
