# CIF file generated by openbabel 2.4.90, see http://openbabel.sf.net
data_I
_chemical_name_common ''
_cell_length_a 15.494
_cell_length_b 15.52
_cell_length_c 15.511
_cell_angle_alpha 74.375
_cell_angle_beta 74.601
_cell_angle_gamma 74.551
_space_group_name_H-M_alt 'P 1'
_space_group_name_Hall 'P 1'
loop_
    _symmetry_equiv_pos_as_xyz
    x,y,z
loop_
    _atom_site_label
    _atom_site_type_symbol
    _atom_site_fract_x
    _atom_site_fract_y
    _atom_site_fract_z
    _atom_site_occupancy
    N0      N    0.49991   0.50003   0.99991   1.000
    N1      N    0.99997   0.50004   0.49993   1.000
    N2      N    0.50006   0.00003   0.49988   1.000
    Zr3     Zr   0.00008   0.00002   0.49994   1.000
    O4      O    0.99975   0.85639   0.48797   1.000
    O5      O    0.85632   0.99985   0.48803   1.000
    O6      O    0.13964   0.99631   0.47631   1.000
    O7      O    0.99621   0.13973   0.47640   1.000
    O8      O    0.00038   0.14366   0.51190   1.000
    O9      O    0.00389   0.86031   0.52347   1.000
    O10     O    0.14384   0.00019   0.51181   1.000
    O11     O    0.86051   0.00374   0.52353   1.000
    Zr12    Zr   0.49998   0.00004   0.99988   1.000
    O13     O    0.47641   0.99624   0.13950   1.000
    O14     O    0.48799   0.85636   0.99967   1.000
    O15     O    0.48805   0.99985   0.85616   1.000
    O16     O    0.47638   0.13968   0.99609   1.000
    O17     O    0.52354   0.86039   0.00369   1.000
    O18     O    0.52360   0.00383   0.86026   1.000
    O19     O    0.51193   0.14371   0.00011   1.000
    O20     O    0.51196   0.00021   0.14359   1.000
    Zr21    Zr   0.99989   0.50001   0.99994   1.000
    O22     O    0.00017   0.51196   0.14359   1.000
    O23     O    0.86031   0.52363   0.00364   1.000
    O24     O    0.14364   0.51188   0.00016   1.000
    O25     O    0.00376   0.52356   0.86024   1.000
    O26     O    0.99609   0.47648   0.13963   1.000
    O27     O    0.85616   0.48816   0.99970   1.000
    O28     O    0.13948   0.47641   0.99622   1.000
    O29     O    0.99965   0.48808   0.85627   1.000
loop_
    _geom_bond_atom_site_label_1
    _geom_bond_atom_site_label_2
    _geom_bond_distance
    _geom_bond_site_symmetry_2
    _ccdc_geom_bond_type
    Zr3    O4        2.28765  1_445   S
    N1     O4        5.48260      .   S
    Zr3    O5        2.28423  1_445   S
    N2     O5        5.47316  1_545   S
    Zr3    O6        2.08265  1_545   S
    N2     O6        5.70871  1_545   S
    Zr3    O7        2.08679  1_455   S
    N1     O7        5.71748      .   S
    Zr3    O8        2.28755      .   S
    N1     O8        5.48225  1_655   S
    Zr3    O9        2.08688  1_545   S
    N1     O9        5.71787  1_655   S
    Zr3    O10       2.28395      .   S
    N2     O10       5.47242      .   S
    Zr3    O11       2.08288  1_455   S
    N2     O11       5.70951      .   S
    Zr12   O13       2.08556  1_546   S
    N2     O13       5.71495  1_545   S
    Zr12   O14       2.28731  1_545   S
    N0     O14       5.48295      .   S
    Zr12   O15       2.28604  1_545   S
    N2     O15       5.47913  1_545   S
    Zr12   O16       2.08681      .   S
    N0     O16       5.71755      .   S
    Zr12   O17       2.08690  1_546   S
    N0     O17       5.71799  1_556   S
    Zr12   O18       2.08548      .   S
    N2     O18       5.71445      .   S
    Zr12   O19       2.28714  1_556   S
    N0     O19       5.48259  1_556   S
    Zr12   O20       2.28612  1_556   S
    N2     O20       5.47964      .   S
    Zr21   O22       2.28636  1_656   S
    N1     O22       5.47932  1_655   S
    Zr21   O23       2.08273  1_556   S
    N0     O23       5.70901  1_556   S
    Zr21   O24       2.28409  1_656   S
    N0     O24       5.47291  1_556   S
    Zr21   O25       2.08535  1_655   S
    N1     O25       5.71458  1_655   S
    Zr21   O26       2.08544  1_556   S
    N1     O26       5.71488      .   S
    Zr21   O27       2.28404      .   S
    N0     O27       5.47268      .   S
    Zr21   O28       2.08279  1_655   S
    N0     O28       5.70925      .   S
    Zr21   O29       2.28638      .   S
    N1     O29       5.47890      .   S
