# CIF file generated by openbabel 2.4.90, see http://openbabel.sf.net
data_I
_chemical_name_common ''
_cell_length_a 19.226
_cell_length_b 22.029
_cell_length_c 18.973
_cell_angle_alpha 101.661
_cell_angle_beta 87.803
_cell_angle_gamma 90.678
_space_group_name_H-M_alt 'P 1'
_space_group_name_Hall 'P 1'
loop_
    _symmetry_equiv_pos_as_xyz
    x,y,z
loop_
    _atom_site_label
    _atom_site_type_symbol
    _atom_site_fract_x
    _atom_site_fract_y
    _atom_site_fract_z
    _atom_site_occupancy
    Y0      Y    0.39499   0.74923   0.99427   1.000
    Y1      Y    0.89528   0.24846   0.99503   1.000
    Y2      Y    0.89236   0.75005   0.00970   1.000
    Y3      Y    0.14225   0.49956   0.50946   1.000
    Y4      Y    0.14509   0.99718   0.49553   1.000
    Y5      Y    0.64478   0.49886   0.49472   1.000
    Y6      Y    0.64247   0.00000   0.50839   1.000
    Y7      Y    0.10780   0.24966   0.99396   1.000
    Y8      Y    0.10505   0.75213   0.00000   1.000
    Y9      Y    0.60575   0.25293   0.00000   1.000
    Y10     Y    0.60772   0.75158   0.99240   1.000
    Y11     Y    0.35783   0.99952   0.49333   1.000
    Y12     Y    0.35497   0.50084   0.50760   1.000
    Y13     Y    0.85535   0.00142   0.50725   1.000
    Y14     Y    0.85754   0.50061   0.49357   1.000
    Y15     Y    0.39325   0.25180   0.00753   1.000
    C16     C    0.51832   0.23302   0.86632   1.000
    C17     C    0.49433   0.72603   0.84974   1.000
    C18     C    0.99428   0.22500   0.85104   1.000
    C19     C    0.00000   0.73252   0.86802   1.000
    C20     C    0.49254   0.06879   0.59438   1.000
    C21     C    0.50174   0.58661   0.55658   1.000
    C22     C    0.00000   0.08568   0.55802   1.000
    C23     C    0.99276   0.56766   0.59595   1.000
    C24     C    0.48463   0.13259   0.00430   1.000
    C25     C    0.51523   0.62996   0.98851   1.000
    C26     C    0.00000   0.12836   0.98936   1.000
    C27     C    0.98496   0.63127   0.00592   1.000
    C28     C    0.23382   0.01843   0.63504   1.000
    C29     C    0.25599   0.52466   0.65190   1.000
    C30     C    0.75545   0.02571   0.65139   1.000
    C31     C    0.73306   0.51943   0.63485   1.000
    C32     C    0.25812   0.18508   0.90564   1.000
    C33     C    0.24804   0.66401   0.94506   1.000
    C34     C    0.74850   0.16393   0.94498   1.000
    C35     C    0.75743   0.68403   0.90682   1.000
    O36     O    0.21085   0.90966   0.48738   1.000
    O37     O    0.70998   0.41075   0.48565   1.000
    O38     O    0.67198   0.90355   0.51516   1.000
    C39     C    0.26508   0.11796   0.49560   1.000
    C40     C    0.23574   0.62071   0.51277   1.000
    C41     C    0.73685   0.12175   0.51190   1.000
    C42     C    0.76548   0.61928   0.49578   1.000
    C43     C    0.98310   0.26814   0.13508   1.000
    C44     C    0.00623   0.77477   0.15169   1.000
    C45     C    0.50611   0.27629   0.15052   1.000
    C46     C    0.48301   0.76889   0.13365   1.000
    C47     C    0.00697   0.43226   0.40731   1.000
    C48     C    0.99798   0.91246   0.44536   1.000
    C49     C    0.49813   0.41338   0.44476   1.000
    C50     C    0.50789   0.93308   0.40590   1.000
    C51     C    0.01650   0.36885   0.99701   1.000
    C52     C    0.98482   0.87169   0.00000   1.000
    C53     C    0.48673   0.37296   0.00000   1.000
    C54     C    0.51492   0.87015   0.99556   1.000
    C55     C    0.26645   0.48074   0.36790   1.000
    C56     C    0.24411   0.97312   0.35081   1.000
    C57     C    0.74429   0.47518   0.35055   1.000
    C58     C    0.76725   0.98194   0.36751   1.000
    C59     C    0.24282   0.31618   0.09600   1.000
    C60     C    0.25200   0.83707   0.05593   1.000
    C61     C    0.75249   0.33729   0.05625   1.000
    C62     C    0.74262   0.81730   0.09570   1.000
    C63     C    0.23406   0.38066   0.50692   1.000
    C64     C    0.26514   0.87806   0.49126   1.000
    C65     C    0.76421   0.37932   0.49039   1.000
    C66     C    0.73370   0.88178   0.50632   1.000
    O67     O    0.46325   0.24308   0.90628   1.000
    O68     O    0.43374   0.73841   0.87950   1.000
    O69     O    0.93341   0.23737   0.88006   1.000
    O70     O    0.96103   0.74182   0.90768   1.000
    O71     O    0.05021   0.23226   0.88550   1.000
    O72     O    0.07755   0.74386   0.89180   1.000
    O73     O    0.57975   0.24323   0.88986   1.000
    O74     O    0.55070   0.73344   0.88342   1.000
    O75     O    0.43169   0.05297   0.57410   1.000
    O76     O    0.44362   0.56744   0.53005   1.000
    O77     O    0.94453   0.06689   0.53081   1.000
    O78     O    0.93228   0.55201   0.57430   1.000
    O79     O    0.06122   0.06922   0.52735   1.000
    O80     O    0.04801   0.53830   0.57063   1.000
    O81     O    0.54754   0.03957   0.56788   1.000
    O82     O    0.56034   0.57063   0.52520   1.000
    O83     O    0.42291   0.15443   0.01239   1.000
    O84     O    0.46093   0.66149   0.98446   1.000
    O85     O    0.96067   0.16020   0.98516   1.000
    O86     O    0.92323   0.65300   0.01510   1.000
    O87     O    0.07675   0.14985   0.98850   1.000
    O88     O    0.03850   0.66409   0.99744   1.000
    O89     O    0.53851   0.16535   0.99706   1.000
    O90     O    0.57712   0.65184   0.98780   1.000
    O91     O    0.17249   0.00781   0.61140   1.000
    O92     O    0.19998   0.51748   0.61700   1.000
    O93     O    0.69932   0.01873   0.61729   1.000
    O94     O    0.67189   0.50905   0.61069   1.000
    O95     O    0.28904   0.00819   0.59534   1.000
    O96     O    0.31678   0.51210   0.62286   1.000
    O97     O    0.81615   0.01326   0.62197   1.000
    O98     O    0.78857   0.50941   0.59557   1.000
    O99     O    0.20264   0.21343   0.93218   1.000
    O100    O    0.18931   0.68035   0.97580   1.000
    O101    O    0.68997   0.18118   0.97564   1.000
    O102    O    0.70282   0.71456   0.93186   1.000
    O103    O    0.31877   0.20229   0.92540   1.000
    O104    O    0.30607   0.68281   0.97220   1.000
    O105    O    0.80670   0.18177   0.97232   1.000
    O106    O    0.81812   0.69866   0.92850   1.000
    O107    O    0.21138   0.08503   0.50296   1.000
    O108    O    0.17376   0.59900   0.51270   1.000
    O109    O    0.67501   0.09973   0.51241   1.000
    O110    O    0.71180   0.58633   0.50316   1.000
    O111    O    0.32686   0.09632   0.48724   1.000
    O112    O    0.28978   0.58902   0.51742   1.000
    O113    O    0.79128   0.09036   0.51580   1.000
    O114    O    0.82729   0.59767   0.48759   1.000
    O115    O    0.03846   0.25809   0.09562   1.000
    O116    O    0.06692   0.76250   0.12219   1.000
    O117    O    0.56671   0.26408   0.12072   1.000
    O118    O    0.53802   0.75972   0.09347   1.000
    O119    O    0.44979   0.26926   0.11673   1.000
    O120    O    0.42163   0.75781   0.11029   1.000
    O121    O    0.92186   0.25810   0.11098   1.000
    O122    O    0.95007   0.76780   0.11761   1.000
    O123    O    0.06749   0.44791   0.42877   1.000
    O124    O    0.05600   0.93101   0.47270   1.000
    O125    O    0.55602   0.43225   0.47214   1.000
    O126    O    0.56862   0.94924   0.42630   1.000
    O127    O    0.43930   0.42928   0.47561   1.000
    O128    O    0.45267   0.96199   0.43234   1.000
    O129    O    0.95181   0.46180   0.43255   1.000
    O130    O    0.93918   0.92884   0.47594   1.000
    O131    O    0.07835   0.34729   0.98971   1.000
    O132    O    0.03891   0.83995   0.00000   1.000
    O133    O    0.54090   0.34122   0.00000   1.000
    O134    O    0.57671   0.84847   0.98731   1.000
    O135    O    0.42473   0.35134   0.00000   1.000
    O136    O    0.46122   0.83731   0.00000   1.000
    O137    O    0.96274   0.33577   0.00000   1.000
    O138    O    0.92281   0.85008   0.00000   1.000
    O139    O    0.32770   0.49106   0.39190   1.000
    O140    O    0.30018   0.98094   0.38505   1.000
    O141    O    0.80025   0.48241   0.38497   1.000
    O142    O    0.82845   0.99216   0.39162   1.000
    O143    O    0.21110   0.49064   0.40749   1.000
    O144    O    0.18324   0.98449   0.38019   1.000
    O145    O    0.68348   0.48765   0.37970   1.000
    O146    O    0.71183   0.99196   0.40691   1.000
    O147    O    0.29825   0.28818   0.06870   1.000
    O148    O    0.31068   0.82107   0.02486   1.000
    O149    O    0.81105   0.32025   0.02550   1.000
    O150    O    0.79727   0.78674   0.07088   1.000
    O151    O    0.18208   0.29886   0.07660   1.000
    O152    O    0.19397   0.81861   0.02853   1.000
    O153    O    0.69437   0.31962   0.02850   1.000
    O154    O    0.68190   0.80260   0.07420   1.000
    O155    O    0.28782   0.41355   0.49961   1.000
    O156    O    0.32705   0.89989   0.49047   1.000
    O157    O    0.82606   0.40133   0.49040   1.000
    O158    O    0.78733   0.91472   0.49866   1.000
    O159    O    0.17233   0.40243   0.51542   1.000
    Og160   Og   0.51623   0.22307   0.84053   1.000
    Og161   Og   0.49526   0.71670   0.82341   1.000
    Og162   Og   0.99539   0.21572   0.82471   1.000
    Og163   Og   0.00000   0.72243   0.84225   1.000
    Og164   Og   0.49504   0.08662   0.61498   1.000
    Og165   Og   0.50131   0.60095   0.58063   1.000
    Og166   Og   0.00000   0.10005   0.58204   1.000
    Og167   Og   0.99501   0.58547   0.61662   1.000
    Og168   Og   0.48732   0.11002   0.00358   1.000
    Og169   Og   0.51268   0.60783   0.99034   1.000
    Og170   Og   0.00000   0.10625   0.99134   1.000
    Og171   Og   0.98780   0.60871   0.00522   1.000
    Og172   Og   0.23588   0.02861   0.66078   1.000
    Og173   Og   0.25490   0.53397   0.67825   1.000
    Og174   Og   0.75447   0.03489   0.67775   1.000
    Og175   Og   0.73494   0.52943   0.66066   1.000
    Og176   Og   0.25586   0.16707   0.88521   1.000
    Og177   Og   0.24849   0.64967   0.92102   1.000
    Og178   Og   0.74883   0.14964   0.92090   1.000
    Og179   Og   0.75494   0.66620   0.88623   1.000
    Og180   Og   0.26228   0.14053   0.49645   1.000
    Og181   Og   0.23843   0.64286   0.51101   1.000
    Og182   Og   0.73930   0.14394   0.51019   1.000
    Og183   Og   0.76263   0.64183   0.49654   1.000
    Og184   Og   0.98503   0.27803   0.16092   1.000
    Og185   Og   0.00519   0.78389   0.17805   1.000
    Og186   Og   0.50515   0.28538   0.17691   1.000
    Og187   Og   0.48513   0.77882   0.15945   1.000
    Og188   Og   0.00466   0.41439   0.38672   1.000
    Og189   Og   0.99849   0.89821   0.42126   1.000
    Og190   Og   0.49866   0.39921   0.42059   1.000
    Og191   Og   0.50556   0.91525   0.38525   1.000
    Og192   Og   0.01369   0.39141   0.99771   1.000
    Og193   Og   0.98750   0.89380   0.00000   1.000
    Og194   Og   0.48934   0.39509   0.00000   1.000
    Og195   Og   0.51217   0.89270   0.99621   1.000
    Og196   Og   0.26450   0.47081   0.34209   1.000
    Og197   Og   0.24519   0.96406   0.32440   1.000
    Og198   Og   0.74540   0.46593   0.32418   1.000
    Og199   Og   0.76535   0.97200   0.34169   1.000
    Og200   Og   0.24508   0.33408   0.11656   1.000
    Og201   Og   0.25156   0.85112   0.08019   1.000
    Og202   Og   0.75208   0.35144   0.08045   1.000
    Og203   Og   0.74513   0.83519   0.11625   1.000
    Og204   Og   0.23683   0.35808   0.50602   1.000
    Og205   Og   0.26253   0.85591   0.49304   1.000
    Og206   Og   0.76170   0.35716   0.49219   1.000
    Og207   Og   0.73654   0.85921   0.50544   1.000
loop_
    _geom_bond_atom_site_label_1
    _geom_bond_atom_site_label_2
    _geom_bond_distance
    _geom_bond_site_symmetry_2
    _ccdc_geom_bond_type
    O138   C52       1.27856      .   S
    O138   Y2        2.31464      .   S
    C53    O135      1.27844      .   S
    C53    O133      1.26115      .   S
    C52    O132      1.26001  1_655   S
    O137   Y1        2.29511  1_554   S
    O137   C51       1.26377  1_654   S
    O136   Y0        2.29436  1_554   S
    O136   C54       1.26375  1_554   S
    O135   Y15       2.29872      .   S
    O133   Y9        2.32274      .   S
    O132   Y8        2.32763      .   S
    Y8     O152      2.24763      .   S
    Y8     O116      2.37140      .   S
    Y8     O72       2.11112  1_554   S
    Y8     O100      2.24621  1_554   S
    Y8     O88       2.30404  1_554   S
    Y9     O153      2.24603      .   S
    Y9     O117      2.34837      .   S
    Y9     O73       2.13526  1_554   S
    Y9     O101      2.24536  1_554   S
    Y9     O89       2.30204  1_554   S
    C24    O83       1.27792      .   S
    C24    O89       1.27439  1_554   S
    C27    O86       1.27754      .   S
    C27    O88       1.27470  1_654   S
    Y15    O83       2.24655      .   S
    Y15    O147      2.19576      .   S
    Y15    O119      2.33732      .   S
    Y15    O67       2.27981  1_554   S
    Y15    O103      2.26157  1_554   S
    Y2     O86       2.24869      .   S
    Y2     O150      2.19914      .   S
    Y2     O122      2.32727      .   S
    Y2     O70       2.27835  1_554   S
    Y2     O106      2.26220  1_554   S
    O148   C60       1.27247      .   S
    O148   Y0        2.25520  1_554   S
    O149   C61       1.27283      .   S
    O149   Y1        2.25317  1_554   S
    O153   C61       1.27643      .   S
    O152   C60       1.27615      .   S
    O147   C59       1.27615      .   S
    O150   C62       1.27648      .   S
    O154   C62       1.26822      .   S
    O154   Y10       2.26548  1_554   S
    O151   C59       1.26905      .   S
    O151   Y7        2.26286  1_554   S
    O118   C46       1.27337      .   S
    O118   Y10       2.27485  1_554   S
    O115   C43       1.27282  1_455   S
    O115   Y7        2.27942  1_554   S
    O120   C46       1.27991      .   S
    O120   Y0        2.24935  1_554   S
    O121   C43       1.28005      .   S
    O121   Y1        2.24512  1_554   S
    O119   C45       1.27140      .   S
    O122   C44       1.27153  1_655   S
    O117   C45       1.28243      .   S
    O116   C44       1.28231      .   S
    C57    O145      1.28252      .   S
    C57    O141      1.27173      .   S
    C56    O144      1.28207      .   S
    C56    O140      1.27190      .   S
    C58    O142      1.27968      .   S
    C58    O146      1.27301      .   S
    C55    O139      1.28000      .   S
    C55    O143      1.27365      .   S
    O145   Y5        2.24471      .   S
    O144   Y4        2.24488      .   S
    O141   Y14       2.33431      .   S
    O140   Y11       2.33251      .   S
    O142   Y13       2.24179  1_565   S
    O139   Y12       2.24382      .   S
    C50    O126      1.26848      .   S
    C50    O128      1.27695      .   S
    O146   Y6        2.27770  1_565   S
    C47    O123      1.26844      .   S
    C47    O129      1.27635  1_455   S
    O143   Y3        2.27814      .   S
    O126   Y6        2.26267  1_565   S
    O123   Y3        2.26496      .   S
    O128   Y11       2.19867      .   S
    O129   Y14       2.19808      .   S
    C49    O125      1.27579      .   S
    C49    O127      1.27287      .   S
    C48    O124      1.27603  1_655   S
    C48    O130      1.27257      .   S
    O125   Y5        2.23419      .   S
    O124   Y4        2.23351      .   S
    O127   Y12       2.25384      .   S
    O130   Y13       2.26073  1_565   S
    O37    C65       1.27425      .   S
    O37    Y5        2.29660      .   S
    O111   Y11       2.24710  1_545   S
    O111   C39       1.27740      .   S
    O36    C64       1.27402      .   S
    O36    Y4        2.29387      .   S
    O114   Y14       2.24841      .   S
    O114   C42       1.27761      .   S
    C65    O157      1.27886      .   S
    O157   Y14       2.25192      .   S
    O156   C64       1.27909      .   S
    O156   Y11       2.25693      .   S
    Y11    O75       2.26909  1_565   S
    Y11    O95       2.27860  1_565   S
    Y14    O78       2.26326      .   S
    Y14    O98       2.28006      .   S
    Y5     O110      2.28708      .   S
    Y5     O82       2.25599      .   S
    Y5     O94       2.24696      .   S
    Y4     O107      2.28790  1_565   S
    Y4     O79       2.25428  1_565   S
    Y4     O91       2.24567  1_565   S
    C39    O107      1.27436      .   S
    C42    O110      1.27437      .   S
    O158   C66       1.27454      .   S
    O158   Y13       2.28391  1_565   S
    O155   C63       1.27446      .   S
    O155   Y12       2.28604      .   S
    C66    O38       1.27745      .   S
    C63    O159      1.27750      .   S
    Y13    O113      2.30124      .   S
    Y13    O77       2.22675      .   S
    Y13    O97       2.24122      .   S
    Y12    O112      2.29629      .   S
    Y12    O76       2.23219      .   S
    Y12    O96       2.24607      .   S
    Y6     O109      2.26426      .   S
    Y6     O38       2.23549  1_545   S
    Y6     O81       2.20161      .   S
    Y6     O93       2.33491      .   S
    Y3     O108      2.25509      .   S
    Y3     O159      2.24887      .   S
    Y3     O80       2.19849      .   S
    Y3     O92       2.32132      .   S
    C41    O109      1.27921      .   S
    C41    O113      1.27367      .   S
    O108   C40       1.27886      .   S
    C40    O112      1.27410      .   S
    O82    C21       1.27303      .   S
    O79    C22       1.31445      .   S
    O76    C21       1.27537      .   S
    O77    C22       1.23320  1_655   S
    O81    C20       1.27662      .   S
    O80    C23       1.27626  1_455   S
    O75    C20       1.26843      .   S
    O78    C23       1.26865      .   S
    O95    C28       1.27312      .   S
    O98    C31       1.27325      .   S
    O94    C31       1.27988      .   S
    O91    C28       1.27987      .   S
    O92    C29       1.27710      .   S
    O93    C30       1.27141      .   S
    O97    C30       1.28225      .   S
    O96    C29       1.28179      .   S
    C17    O68       1.28259      .   S
    C17    O74       1.27138      .   S
    C18    O69       1.28234      .   S
    C18    O71       1.27154  1_655   S
    C16    O73       1.27997      .   S
    C16    O67       1.27313      .   S
    C19    O72       1.57681      .   S
    C19    O70       1.03321  1_455   S
    O68    Y0        2.24128      .   S
    O69    Y1        2.24091      .   S
    O74    Y10       2.33802      .   S
    O71    Y7        2.33522      .   S
    C32    O103      1.26883      .   S
    C32    O99       1.27624      .   S
    C35    O106      1.26829      .   S
    C35    O102      1.27662      .   S
    O102   Y10       2.19607      .   S
    O99    Y7        2.19720      .   S
    C34    O105      1.27571      .   S
    C34    O101      1.27258      .   S
    C33    O104      1.27593      .   S
    C33    O100      1.27241      .   S
    O104   Y0        2.23323      .   S
    O105   Y1        2.23267      .   S
    O84    C25       1.27390      .   S
    O84    Y0        2.29622      .   S
    O85    C26       1.05365  1_655   S
    O85    Y1        2.29951      .   S
    O134   Y10       2.24471      .   S
    O134   C54       1.27778      .   S
    O90    C25       1.27909      .   S
    O90    Y10       2.25314      .   S
    O87    C26       1.54482      .   S
    O87    Y7        2.25452      .   S
    O131   Y7        2.24834      .   S
    O131   C51       1.27796      .   S
    Y15    Y9        4.08246      .   S
    Y0     Y10       4.08858      .   S
    Y1     Y7        4.08504  1_655   S
    Y2     Y8        4.08643  1_655   S
    Y3     Y12       4.08839      .   S
    Y4     Y11       4.08865      .   S
    Y5     Y14       4.08940      .   S
    Y6     Y13       4.09194      .   S
    C16    Og160     0.49709      .   S
    C17    Og161     0.49995      .   S
    C18    Og162     0.49985      .   S
    C19    Og163     0.49453      .   S
    C20    Og164     0.49821      .   S
    C21    Og165     0.49958      .   S
    C22    Og166     0.49951      .   S
    C23    Og167     0.49827      .   S
    C24    Og168     0.49779      .   S
    C25    Og169     0.49750      .   S
    C26    Og170     0.49590      .   S
    C27    Og171     0.49801      .   S
    C28    Og172     0.49731      .   S
    C29    Og173     0.50024      .   S
    C30    Og174     0.49992      .   S
    C31    Og175     0.49723      .   S
    C32    Og176     0.49829      .   S
    C33    Og177     0.49948      .   S
    C34    Og178     0.49949      .   S
    C35    Og179     0.49822      .   S
    C39    Og180     0.49777      .   S
    C40    Og181     0.49785      .   S
    C41    Og182     0.49800      .   S
    C42    Og183     0.49776      .   S
    C43    Og184     0.49721      .   S
    C44    Og185     0.49962      .   S
    C45    Og186     0.50001      .   S
    C46    Og187     0.49718      .   S
    C47    Og188     0.49829      .   S
    C48    Og189     0.49940      .   S
    C49    Og190     0.49963      .   S
    C50    Og191     0.49847      .   S
    C51    Og192     0.49792      .   S
    C52    Og193     0.48911      .   S
    C53    Og194     0.48951      .   S
    C54    Og195     0.49782      .   S
    C55    Og196     0.49692      .   S
    C56    Og197     0.50021      .   S
    C57    Og198     0.50044      .   S
    C58    Og199     0.49718      .   S
    C59    Og200     0.49828      .   S
    C60    Og201     0.49980      .   S
    C61    Og202     0.50004      .   S
    C62    Og203     0.49854      .   S
    C63    Og204     0.49776      .   S
    C64    Og205     0.49778      .   S
    C65    Og206     0.49788      .   S
    C66    Og207     0.49771      .   S
