# CIF file generated by openbabel 2.4.90, see http://openbabel.sf.net
data_I
_chemical_name_common ''
_cell_length_a 19.226
_cell_length_b 22.029
_cell_length_c 18.973
_cell_angle_alpha 101.661
_cell_angle_beta 87.803
_cell_angle_gamma 90.678
_space_group_name_H-M_alt 'P 1'
_space_group_name_Hall 'P 1'
loop_
    _symmetry_equiv_pos_as_xyz
    x,y,z
loop_
    _atom_site_label
    _atom_site_type_symbol
    _atom_site_fract_x
    _atom_site_fract_y
    _atom_site_fract_z
    _atom_site_occupancy
    N0      N    0.49968   0.00134   0.99613   1.000
    N1      N    0.50147   0.33587   0.30157   1.000
    N2      N    0.25104   0.58546   0.80254   1.000
    N3      N    0.75606   0.91360   0.22223   1.000
    N4      N    0.99906   0.00003   0.99955   1.000
    N5      N    0.25523   0.41249   0.22268   1.000
    N6      N    0.74959   0.75050   0.50082   1.000
    N7      N    0.99926   0.16431   0.70045   1.000
    N8      N    0.50108   0.50146   0.99842   1.000
    N9      N    0.49876   0.66515   0.69916   1.000
    N10     N    0.74410   0.58795   0.78004   1.000
    N11     N    0.49504   0.83708   0.27888   1.000
    N12     N    0.00078   0.50006   0.99703   1.000
    N13     N    0.50623   0.16476   0.72118   1.000
    N14     N    0.25055   0.74939   0.50205   1.000
    N15     N    0.99428   0.33616   0.28045   1.000
    N16     N    0.74949   0.41490   0.19957   1.000
    N17     N    0.00408   0.66365   0.72298   1.000
    N18     N    0.24558   0.08798   0.77969   1.000
    N19     N    0.24953   0.24929   0.50117   1.000
    N20     N    0.75097   0.08580   0.80220   1.000
    N21     N    0.00131   0.83456   0.30251   1.000
    N22     N    0.24903   0.91393   0.19957   1.000
    N23     N    0.75042   0.25059   0.50133   1.000
    Zr24    Zr   0.50136   0.75040   0.99333   1.000
    Zr25    Zr   0.99870   0.75109   0.00485   1.000
    C26     C    0.74060   0.80222   0.08026   1.000
    O27     O    0.83118   0.78098   0.05142   1.000
    O28     O    0.74591   0.84054   0.12732   1.000
    O29     O    0.65684   0.78298   0.04679   1.000
    C30     C    0.01286   0.73940   0.88917   1.000
    O31     O    0.00745   0.71496   0.83267   1.000
    C32     C    0.98223   0.64945   0.00615   1.000
    O33     O    0.98862   0.59910   0.00355   1.000
    C34     C    0.51762   0.85198   0.99429   1.000
    O35     O    0.51143   0.90232   0.99531   1.000
    C36     C    0.00774   0.76836   0.13050   1.000
    O37     O    0.00536   0.78993   0.18868   1.000
    C38     C    0.24781   0.67572   0.96435   1.000
    O39     O    0.24884   0.64485   0.91006   1.000
    O40     O    0.33688   0.70447   0.97632   1.000
    O41     O    0.16037   0.70469   0.98036   1.000
    C42     C    0.51776   0.64776   0.98692   1.000
    O43     O    0.51200   0.59844   0.99088   1.000
    C44     C    0.25222   0.82558   0.03644   1.000
    O45     O    0.33966   0.79668   0.01894   1.000
    O46     O    0.25120   0.85581   0.09119   1.000
    O47     O    0.16316   0.79690   0.02300   1.000
    C48     C    0.48089   0.76214   0.11247   1.000
    O49     O    0.48575   0.78629   0.16904   1.000
    C50     C    0.75946   0.69908   0.92239   1.000
    O51     O    0.66889   0.72041   0.95006   1.000
    O52     O    0.84321   0.71840   0.95468   1.000
    O53     O    0.75418   0.66085   0.87519   1.000
    C54     C    0.98218   0.85390   0.00000   1.000
    O55     O    0.98807   0.90317   0.99989   1.000
    C56     C    0.49292   0.73263   0.87089   1.000
    O57     O    0.49508   0.71061   0.81280   1.000
    Zr58    Zr   0.74891   0.00071   0.50782   1.000
    Zr59    Zr   0.25146   0.99835   0.49443   1.000
    C60     C    0.99772   0.92410   0.46467   1.000
    O61     O    0.08686   0.95266   0.47697   1.000
    O62     O    0.99887   0.89346   0.41026   1.000
    O63     O    0.91040   0.95351   0.48219   1.000
    C64     C    0.73438   0.10395   0.51337   1.000
    O65     O    0.73993   0.15338   0.50935   1.000
    C66     C    0.75697   0.01923   0.63022   1.000
    O67     O    0.75472   0.04094   0.68839   1.000
    C68     C    0.23178   0.01148   0.61393   1.000
    O69     O    0.23652   0.03616   0.67030   1.000
    C70     C    0.26777   0.09977   0.49527   1.000
    O71     O    0.26149   0.15016   0.49714   1.000
    C72     C    0.49059   0.05378   0.57879   1.000
    O73     O    0.49592   0.09196   0.62601   1.000
    O74     O    0.40685   0.03304   0.54643   1.000
    O75     O    0.58127   0.03201   0.55088   1.000
    C76     C    0.76918   0.98869   0.38868   1.000
    O77     O    0.76470   0.96450   0.33209   1.000
    C78     C    0.24251   0.97951   0.37202   1.000
    O79     O    0.24494   0.95812   0.31370   1.000
    C80     C    0.73100   0.90002   0.50671   1.000
    O81     O    0.73739   0.84961   0.50481   1.000
    C82     C    0.00192   0.07393   0.53873   1.000
    O83     O    0.91317   0.04568   0.52608   1.000
    O84     O    0.08961   0.04485   0.52083   1.000
    O85     O    0.00077   0.10485   0.59299   1.000
    C86     C    0.50973   0.94810   0.42151   1.000
    O87     O    0.50472   0.90991   0.37421   1.000
    O88     O    0.41904   0.96883   0.45007   1.000
    O89     O    0.59348   0.96788   0.45455   1.000
    C90     C    0.26768   0.89587   0.48970   1.000
    O91     O    0.26179   0.84649   0.49385   1.000
    Zr92    Zr   0.24861   0.50020   0.50853   1.000
    Zr93    Zr   0.75116   0.49973   0.49415   1.000
    C94     C    0.49782   0.42497   0.46417   1.000
    O95     O    0.58680   0.45380   0.47648   1.000
    O96     O    0.49901   0.39448   0.40960   1.000
    O97     O    0.41035   0.45380   0.48212   1.000
    C98     C    0.73117   0.51263   0.61370   1.000
    O99     O    0.73558   0.53691   0.67025   1.000
    C100    C    0.00876   0.44733   0.42288   1.000
    O101    O    0.09275   0.46715   0.45585   1.000
    O102    O    0.00382   0.40907   0.37566   1.000
    O103    O    0.91834   0.46890   0.45074   1.000
    C104    C    0.74267   0.48175   0.37174   1.000
    O105    O    0.74520   0.45992   0.31351   1.000
    C106    C    0.23140   0.39888   0.50732   1.000
    O107    O    0.23764   0.34846   0.50534   1.000
    C108    C    0.23309   0.60291   0.51430   1.000
    O109    O    0.23913   0.65229   0.51019   1.000
    C110    C    0.76675   0.39713   0.48881   1.000
    O111    O    0.76109   0.34773   0.49301   1.000
    C112    C    0.76819   0.60109   0.49551   1.000
    O113    O    0.76179   0.65145   0.49719   1.000
    C114    C    0.26842   0.48748   0.38910   1.000
    O115    O    0.26390   0.46333   0.33252   1.000
    C116    C    0.25758   0.51808   0.63059   1.000
    O117    O    0.25514   0.54006   0.68878   1.000
    C118    C    0.99102   0.55266   0.58029   1.000
    O119    O    0.90703   0.53284   0.54717   1.000
    O120    O    0.08144   0.53111   0.55229   1.000
    O121    O    0.99556   0.59084   0.62763   1.000
    C122    C    0.50190   0.57489   0.53728   1.000
    O123    O    0.58938   0.54606   0.51966   1.000
    O124    O    0.41293   0.54603   0.52548   1.000
    O125    O    0.50091   0.60576   0.59159   1.000
    Zr126   Zr   0.00154   0.24906   0.99449   1.000
    Zr127   Zr   0.49950   0.25236   0.00377   1.000
    C128    C    0.50754   0.26987   0.12932   1.000
    O129    O    0.50530   0.29139   0.18758   1.000
    C130    C    0.48412   0.35517   0.00000   1.000
    O131    O    0.48999   0.40449   0.99961   1.000
    C132    C    0.98114   0.26144   0.11389   1.000
    O133    O    0.98564   0.28551   0.17052   1.000
    C134    C    0.99264   0.23154   0.87220   1.000
    O135    O    0.99512   0.20962   0.81410   1.000
    C136    C    0.48202   0.15079   0.00458   1.000
    O137    O    0.48809   0.10041   0.00213   1.000
    C138    C    0.75264   0.32572   0.03675   1.000
    O139    O    0.66371   0.29752   0.02288   1.000
    O140    O    0.84000   0.29621   0.01956   1.000
    O141    O    0.75166   0.35621   0.09141   1.000
    C142    C    0.01247   0.14614   0.98767   1.000
    O143    O    0.00600   0.09687   0.99181   1.000
    C144    C    0.74839   0.17563   0.96431   1.000
    O145    O    0.66103   0.20517   0.98005   1.000
    O146    O    0.74919   0.14489   0.90992   1.000
    O147    O    0.83733   0.20386   0.97670   1.000
    C148    C    0.01919   0.35064   0.99557   1.000
    O149    O    0.01286   0.40101   0.99656   1.000
    C150    C    0.25984   0.20027   0.92107   1.000
    O151    O    0.34380   0.21999   0.95309   1.000
    O152    O    0.25500   0.16164   0.87421   1.000
    O153    O    0.16911   0.22028   0.94993   1.000
    C154    C    0.24105   0.30107   0.08043   1.000
    O155    O    0.24588   0.33942   0.12760   1.000
    O156    O    0.33184   0.28112   0.05069   1.000
    O157    O    0.15714   0.28136   0.04766   1.000
    C158    C    0.52044   0.23978   0.88749   1.000
    O159    O    0.51557   0.21560   0.83095   1.000
    O160    O    0.00836   0.74421   0.93387   1.000
    O161    O    0.98824   0.68870   0.00568   1.000
    O162    O    0.51169   0.81275   0.99385   1.000
    O163    O    0.48972   0.31551   0.00141   1.000
    O164    O    0.00445   0.76148   0.08205   1.000
    O165    O    0.98867   0.25638   0.06779   1.000
    O166    O    0.48841   0.19002   0.00429   1.000
    O167    O    0.23903   0.00612   0.56780   1.000
    O168    O    0.26182   0.06060   0.49493   1.000
    O169    O    0.51177   0.68737   0.98923   1.000
    O170    O    0.00915   0.18584   0.99013   1.000
    O171    O    0.76170   0.99362   0.43468   1.000
    O172    O    0.23875   0.56328   0.51223   1.000
    O173    O    0.76197   0.56194   0.49498   1.000
    O174    O    0.26111   0.49267   0.43521   1.000
    O175    O    0.25432   0.51096   0.58348   1.000
    O176    O    0.51272   0.24492   0.93241   1.000
    O177    O    0.26176   0.93541   0.49138   1.000
    O178    O    0.73855   0.50737   0.56755   1.000
    O179    O    0.48843   0.75732   0.06647   1.000
    O180    O    0.49600   0.73971   0.91813   1.000
    O181    O    0.98821   0.81424   0.00182   1.000
    O182    O    0.99587   0.23852   0.91938   1.000
    O183    O    0.01274   0.31140   0.99508   1.000
    O184    O    0.23769   0.43801   0.50780   1.000
    O185    O    0.50461   0.26291   0.08091   1.000
    O186    O    0.73755   0.93892   0.50715   1.000
    O187    O    0.24577   0.98698   0.41925   1.000
    O188    O    0.75404   0.01188   0.58299   1.000
    O189    O    0.73967   0.06412   0.51138   1.000
    O190    O    0.74575   0.48890   0.41897   1.000
    O191    O    0.76107   0.43672   0.49071   1.000
loop_
    _geom_bond_atom_site_label_1
    _geom_bond_atom_site_label_2
    _geom_bond_distance
    _geom_bond_site_symmetry_2
    _ccdc_geom_bond_type
    C26    O27       1.84227      .   S
    Zr25   O27       3.34439      .   S
    C26    O28       1.10487      .   S
    N3     O28       2.17237      .   S
    C26    O29       1.76899      .   S
    Zr24   O29       3.21977  1_556   S
    C30    O31       1.10620      .   S
    N17    O31       2.16114      .   S
    C32    O33       1.10836      .   S
    N12    O33       2.17494  1_456   S
    C34    O35       1.11292      .   S
    N0     O35       2.19254  1_545   S
    C36    O37       1.10963      .   S
    N21    O37       2.18339      .   S
    C38    O39       1.11338      .   S
    N2     O39       2.18885      .   S
    C38    O40       1.82508      .   S
    Zr24   O40       3.31649      .   S
    C38    O41       1.79808      .   S
    Zr25   O41       3.27022  1_654   S
    C42    O43       1.10823      .   S
    N8     O43       2.17701      .   S
    C44    O45       1.79968      .   S
    Zr24   O45       3.27097  1_556   S
    C44    O46       1.11442      .   S
    N22    O46       2.19077      .   S
    C44    O47       1.82715      .   S
    Zr25   O47       3.31698  1_655   S
    C48    O49       1.10431      .   S
    N11    O49       2.16974      .   S
    C50    O51       1.83795      .   S
    Zr24   O51       3.33364      .   S
    C50    O52       1.76168      .   S
    Zr25   O52       3.20176  1_554   S
    C50    O53       1.10535      .   S
    N10    O53       2.17321      .   S
    C54    O55       1.09027  1_554   S
    N4     O55       2.14284  1_545   S
    C56    O57       1.11023      .   S
    N9     O57       2.18485      .   S
    C60    O61       1.82573  1_655   S
    Zr59   O61       3.31775      .   S
    C60    O62       1.11285      .   S
    N21    O62       2.18798  1_455   S
    C60    O63       1.80118      .   S
    Zr58   O63       3.27325  1_545   S
    C64    O65       1.11052      .   S
    N23    O65       2.18379      .   S
    C66    O67       1.11007      .   S
    N20    O67       2.18438      .   S
    C68    O69       1.10406      .   S
    N18    O69       2.16940      .   S
    C70    O71       1.11138      .   S
    N19    O71       2.18422      .   S
    C72    O73       1.10503      .   S
    N13    O73       2.17271      .   S
    C72    O74       1.76709      .   S
    Zr59   O74       3.21709  1_565   S
    C72    O75       1.84292      .   S
    Zr58   O75       3.33973      .   S
    C76    O77       1.10396      .   S
    N3     O77       2.16948      .   S
    C78    O79       1.11099      .   S
    N22    O79       2.18624      .   S
    C80    O81       1.11173      .   S
    N6     O81       2.18453      .   S
    C82    O83       1.81712  1_455   S
    Zr58   O83       3.30846      .   S
    C82    O84       1.80611      .   S
    Zr59   O84       3.27589  1_565   S
    C82    O85       1.11330      .   S
    N7     O85       2.18867  1_655   S
    C86    O87       1.10556      .   S
    N11    O87       2.17381      .   S
    C86    O88       1.84075      .   S
    Zr59   O88       3.33652      .   S
    C86    O89       1.76799      .   S
    Zr58   O89       3.21865  1_545   S
    C90    O91       1.11054      .   S
    N14    O91       2.18349      .   S
    C94    O95       1.82477      .   S
    Zr93   O95       3.31513      .   S
    C94    O96       1.11392      .   S
    N1     O96       2.18981      .   S
    C94    O97       1.80038      .   S
    Zr92   O97       3.27312      .   S
    C98    O99       1.10380      .   S
    N10    O99       2.16908      .   S
    C100   O101      1.77206      .   S
    Zr92   O101      3.22379      .   S
    C100   O102      1.10513      .   S
    N15    O102      2.17290  1_655   S
    C100   O103      1.83709  1_455   S
    Zr93   O103      3.33057      .   S
    C104   O105      1.11167      .   S
    N16    O105      2.18758      .   S
    C106   O107      1.11151      .   S
    N19    O107      2.18435      .   S
    C108   O109      1.11054      .   S
    N14    O109      2.18347      .   S
    C110   O111      1.11082      .   S
    N23    O111      2.18404      .   S
    C112   O113      1.11144      .   S
    N6     O113      2.18424      .   S
    C114   O115      1.10375      .   S
    N5     O115      2.16868      .   S
    C116   O117      1.11188      .   S
    N2     O117      2.18649      .   S
    C118   O119      1.77297      .   S
    Zr93   O119      3.22593      .   S
    C118   O120      1.83765  1_655   S
    Zr92   O120      3.33190      .   S
    C118   O121      1.10477      .   S
    N17    O121      2.17169  1_455   S
    C122   O123      1.80004      .   S
    Zr93   O123      3.27272      .   S
    C122   O124      1.82388      .   S
    Zr92   O124      3.31267      .   S
    C122   O125      1.11370      .   S
    N9     O125      2.18945      .   S
    C128   O129      1.11049      .   S
    N1     O129      2.18531      .   S
    C130   O131      1.09239  1_554   S
    N8     O131      2.14870      .   S
    C132   O133      1.10389      .   S
    N15    O133      2.16900      .   S
    C134   O135      1.10999      .   S
    N7     O135      2.18421      .   S
    C136   O137      1.10863      .   S
    N0     O137      2.17602  1_556   S
    C138   O139      1.82259      .   S
    Zr127  O139      3.31001      .   S
    C138   O140      1.80218      .   S
    Zr126  O140      3.27338  1_456   S
    C138   O141      1.11541      .   S
    N16    O141      2.19240      .   S
    C142   O143      1.10892      .   S
    N4     O143      2.17018  1_655   S
    C144   O145      1.80062      .   S
    Zr127  O145      3.27244  1_554   S
    C144   O146      1.11366      .   S
    N20    O146      2.18928      .   S
    C144   O147      1.81996      .   S
    Zr126  O147      3.30822  1_455   S
    C148   O149      1.11400      .   S
    N12    O149      2.19535      .   S
    C150   O151      1.76496      .   S
    Zr127  O151      3.20729  1_554   S
    C150   O152      1.10541      .   S
    N18    O152      2.17342      .   S
    C150   O153      1.83969      .   S
    Zr126  O153      3.33452      .   S
    C154   O155      1.10539      .   S
    N5     O155      2.17309      .   S
    C154   O156      1.84409      .   S
    Zr127  O156      3.34439      .   S
    C154   O157      1.76877      .   S
    Zr126  O157      3.21944  1_556   S
    C158   O159      1.10397      .   S
    N13    O159      2.16911      .   S
    C30    O160      0.83447      .   S
    Zr25   O160      1.33045  1_654   S
    C32    O161      0.87276      .   S
    Zr25   O161      1.38975      .   S
    C34    O162      0.86865      .   S
    Zr24   O162      1.38350      .   S
    C130   O163      0.88757      .   S
    Zr127  O163      1.41573      .   S
    C36    O164      0.90534      .   S
    Zr25   O164      1.44447  1_655   S
    C132   O165      0.86579      .   S
    Zr126  O165      1.38030  1_456   S
    C136   O166      0.87248      .   S
    Zr127  O166      1.38935      .   S
    C68    O167      0.86527      .   S
    Zr59   O167      1.37953  1_565   S
    C70    O168      0.86783      .   S
    Zr59   O168      1.38153  1_565   S
    C42    O169      0.87341      .   S
    Zr24   O169      1.39145      .   S
    C142   O170      0.86945      .   S
    Zr126  O170      1.38733      .   S
    C76    O171      0.86408      .   S
    Zr58   O171      1.37753  1_545   S
    C108   O172      0.87378      .   S
    Zr92   O172      1.39199      .   S
    C112   O173      0.86729      .   S
    Zr93   O173      1.38072      .   S
    C114   O174      0.86530      .   S
    Zr92   O174      1.37932      .   S
    C116   O175      0.88013      .   S
    Zr92   O175      1.40201      .   S
    C158   O176      0.84447      .   S
    Zr127  O176      1.34499  1_554   S
    C90    O177      0.87386      .   S
    Zr59   O177      1.39207      .   S
    C98    O178      0.86618      .   S
    Zr93   O178      1.38092      .   S
    C48    O179      0.86440      .   S
    Zr24   O179      1.37820  1_556   S
    C56    O180      0.88231      .   S
    Zr24   O180      1.40608      .   S
    C54    O181      0.89059      .   S
    Zr25   O181      1.42096      .   S
    Zr126  O182      1.40508  1_455   S
    C134   O182      0.88165      .   S
    Zr126  O183      1.38564      .   S
    C148   O183      0.86985      .   S
    C106   O184      0.86735      .   S
    Zr92   O184      1.38079      .   S
    C128   O185      0.90392      .   S
    Zr127  O185      1.44196      .   S
    C80    O186      0.86308      .   S
    Zr58   O186      1.37374  1_545   S
    C78    O187      0.88230      .   S
    Zr59   O187      1.40583      .   S
    C66    O188      0.88154      .   S
    Zr58   O188      1.40461      .   S
    C64    O189      0.87743      .   S
    Zr58   O189      1.39785      .   S
    Zr93   O190      1.40551      .   S
    C104   O190      0.88203      .   S
    Zr93   O191      1.39142      .   S
    C110   O191      0.87352      .   S
