# CIF file generated by openbabel 2.4.90, see http://openbabel.sf.net
data_I
_chemical_name_common ''
_cell_length_a 13.444
_cell_length_b 13.791
_cell_length_c 27.651
_cell_angle_alpha 90.014
_cell_angle_beta 89.914
_cell_angle_gamma 89.064
_space_group_name_H-M_alt 'P 1'
_space_group_name_Hall 'P 1'
loop_
    _symmetry_equiv_pos_as_xyz
    x,y,z
loop_
    _atom_site_label
    _atom_site_type_symbol
    _atom_site_fract_x
    _atom_site_fract_y
    _atom_site_fract_z
    _atom_site_occupancy
    Cd0     Cd   0.89378   0.54090   0.18676   1.000
    Cd1     Cd   0.12247   0.78279   0.06739   1.000
    Cd2     Cd   0.48803   0.33173   0.87490   1.000
    Cd3     Cd   0.37893   0.95942   0.81057   1.000
    Cd4     Cd   0.61262   0.70981   0.92955   1.000
    Cd5     Cd   0.50632   0.83495   0.62613   1.000
    Cd6     Cd   0.60810   0.45771   0.69060   1.000
    Cd7     Cd   0.37871   0.21482   0.57025   1.000
    Cd8     Cd   0.00920   0.66445   0.37269   1.000
    Cd9     Cd   0.11644   0.03972   0.31206   1.000
    Cd10    Cd   0.87863   0.28897   0.42953   1.000
    Cd11    Cd   0.00042   0.83351   0.87345   1.000
    Cd12    Cd   0.10729   0.45658   0.81092   1.000
    Cd13    Cd   0.87740   0.21389   0.93134   1.000
    Cd14    Cd   0.51053   0.67055   0.12680   1.000
    Cd15    Cd   0.62117   0.04390   0.18980   1.000
    Cd16    Cd   0.38547   0.29339   0.07195   1.000
    Cd17    Cd   0.49424   0.16396   0.37490   1.000
    Cd18    Cd   0.39256   0.54186   0.31150   1.000
    Cd19    Cd   0.62240   0.78480   0.43151   1.000
    Cd20    Cd   0.98940   0.33660   0.62525   1.000
    Cd21    Cd   0.88539   0.96096   0.68750   1.000
    Cd22    Cd   0.12181   0.71226   0.56910   1.000
    C23     C    0.93157   0.39015   0.16611   1.000
    C24     C    0.77028   0.08254   0.16350   1.000
    C25     C    0.08659   0.93777   0.08536   1.000
    C26     C    0.23379   0.24245   0.08536   1.000
    C27     C    0.03286   0.68028   0.11000   1.000
    C28     C    0.90424   0.20322   0.01000   1.000
    C29     C    0.08773   0.08889   0.23751   1.000
    C30     C    0.43206   0.10163   0.83373   1.000
    C31     C    0.25587   0.41120   0.83625   1.000
    Cd32    Cd   0.00000   0.16217   0.12569   1.000
    C33     C    0.54638   0.56784   0.91521   1.000
    C34     C    0.72338   0.26385   0.91906   1.000
    C35     C    0.52760   0.80136   0.87844   1.000
    C36     C    0.39853   0.29973   0.99230   1.000
    C37     C    0.57747   0.40854   0.76481   1.000
    C38     C    0.55877   0.60372   0.66864   1.000
    C39     C    0.73716   0.91412   0.66377   1.000
    C40     C    0.44364   0.06964   0.58510   1.000
    C41     C    0.27319   0.76452   0.58195   1.000
    C42     C    0.46252   0.30684   0.62050   1.000
    C43     C    0.60310   0.79293   0.51083   1.000
    C44     C    0.41319   0.91382   0.73573   1.000
    C45     C    0.06583   0.89554   0.33331   1.000
    C46     C    0.24203   0.58518   0.33620   1.000
    C47     C    0.94326   0.43129   0.41284   1.000
    C48     C    0.77612   0.73544   0.41708   1.000
    C49     C    0.96539   0.19386   0.38039   1.000
    C50     C    0.10448   0.70050   0.48988   1.000
    C51     C    0.92575   0.59153   0.26022   1.000
    C52     C    0.05367   0.60220   0.83176   1.000
    C53     C    0.23233   0.91185   0.83555   1.000
    C54     C    0.93865   0.06788   0.91387   1.000
    C55     C    0.76152   0.76542   0.91458   1.000
    C56     C    0.96145   0.30643   0.88100   1.000
    C57     C    0.07881   0.78701   0.99028   1.000
    C58     C    0.91578   0.91298   0.76236   1.000
    C59     C    0.57341   0.89899   0.16690   1.000
    C60     C    0.74110   0.57980   0.16213   1.000
    C61     C    0.44767   0.43768   0.08600   1.000
    C62     C    0.27882   0.75377   0.08864   1.000
    C63     C    0.47273   0.19967   0.12131   1.000
    C64     C    0.60164   0.70202   0.00886   1.000
    C65     C    0.42488   0.59183   0.23772   1.000
    C66     C    0.44057   0.39551   0.33325   1.000
    C67     C    0.26405   0.08481   0.33753   1.000
    C68     C    0.55850   0.93032   0.41630   1.000
    C69     C    0.72717   0.23640   0.41751   1.000
    C70     C    0.53638   0.69194   0.38245   1.000
    C71     C    0.39792   0.20578   0.49097   1.000
    C72     C    0.58701   0.08954   0.26427   1.000
    C73     C    0.93557   0.10506   0.66592   1.000
    C74     C    0.75743   0.41437   0.66413   1.000
    C75     C    0.05496   0.57039   0.58488   1.000
    C76     C    0.22484   0.26602   0.58262   1.000
    C77     C    0.03525   0.80664   0.61872   1.000
    C78     C    0.89636   0.29999   0.50875   1.000
    C79     C    0.07685   0.41086   0.73607   1.000
loop_
    _geom_bond_atom_site_label_1
    _geom_bond_atom_site_label_2
    _geom_bond_distance
    _geom_bond_site_symmetry_2
    _ccdc_geom_bond_type
    C64    Cd4       2.20050  1_554   S
    C28    Cd13      2.20985  1_554   S
    Cd1    C25       2.23898      .   S
    Cd1    C62       2.21357      .   S
    Cd1    C27       2.21146      .   S
    Cd1    C57       2.21288  1_554   S
    Cd16   C26       2.19859      .   S
    Cd16   C61       2.20562      .   S
    Cd16   C63       2.20582      .   S
    Cd16   C36       2.21099  1_554   S
    C60    Cd0       2.22115      .   S
    C24    Cd15      2.20506      .   S
    C23    Cd0       2.20688      .   S
    C59    Cd15      2.20214  1_565   S
    Cd0    C51       2.19317      .   S
    Cd15   C72       2.19872      .   S
    C29    Cd9       2.20291      .   S
    C65    Cd18      2.19852      .   S
    Cd18   C66       2.19346      .   S
    Cd18   C46       2.20784      .   S
    Cd9    C45       2.19212  1_545   S
    Cd9    C67       2.20564      .   S
    C49    Cd10      2.20715      .   S
    C70    Cd19      2.20673      .   S
    C47    Cd10      2.20800      .   S
    C68    Cd19      2.21084      .   S
    C48    Cd19      2.20113      .   S
    C69    Cd10      2.19839      .   S
    Cd10   C78       2.20926      .   S
    Cd19   C43       2.21079      .   S
    C50    Cd22      2.20941      .   S
    C71    Cd7       2.21019      .   S
    Cd22   C41       2.19947      .   S
    Cd22   C75       2.20961      .   S
    Cd22   C77       2.20805      .   S
    Cd7    C76       2.20119      .   S
    Cd7    C40       2.20992      .   S
    Cd7    C42       2.20481      .   S
    C39    Cd21      2.20559      .   S
    C74    Cd6       2.20895      .   S
    C73    Cd21      2.19173  1_545   S
    C38    Cd6       2.19574      .   S
    Cd21   C58       2.20997      .   S
    Cd6    C37       2.20167      .   S
    C44    Cd3       2.20840      .   S
    C79    Cd12      2.20427      .   S
    Cd3    C30       2.19392  1_565   S
    Cd3    C53       2.19783      .   S
    Cd12   C52       2.19905      .   S
    Cd12   C31       2.19907      .   S
    C35    Cd4       2.20374      .   S
    C56    Cd13      2.21050      .   S
    C54    Cd13      2.21593      .   S
    C55    Cd4       2.19422      .   S
    C33    Cd4       2.20026      .   S
    C34    Cd13      2.19837      .   S
