# CIF file generated by openbabel 2.4.90, see http://openbabel.sf.net
data_I
_chemical_name_common ''
_cell_length_a 13.444
_cell_length_b 13.791
_cell_length_c 27.651
_cell_angle_alpha 90.014
_cell_angle_beta 89.914
_cell_angle_gamma 89.064
_space_group_name_H-M_alt 'P 1'
_space_group_name_Hall 'P 1'
loop_
    _symmetry_equiv_pos_as_xyz
    x,y,z
loop_
    _atom_site_label
    _atom_site_type_symbol
    _atom_site_fract_x
    _atom_site_fract_y
    _atom_site_fract_z
    _atom_site_occupancy
    N0      N    0.57729   0.79696   0.55124   1.000
    N1      N    0.43511   0.88554   0.69723   1.000
    N2      N    0.33461   0.38839   0.85056   1.000
    N3      N    0.15373   0.22030   0.09719   1.000
    N4      N    0.06892   0.11840   0.19889   1.000
    N5      N    0.52236   0.48907   0.90547   1.000
    N6      N    0.98559   0.63174   0.13565   1.000
    N7      N    0.45572   0.17783   0.84770   1.000
    N8      N    0.95790   0.31293   0.15353   1.000
    N9      N    0.84912   0.10317   0.14932   1.000
    N10     N    0.93314   0.19745   0.04980   1.000
    N11     N    0.05381   0.01381   0.09640   1.000
    N12     N    0.16231   0.60649   0.34998   1.000
    N13     N    0.35272   0.78721   0.59426   1.000
    N14     N    0.04374   0.81831   0.34653   1.000
    N15     N    0.84052   0.78784   0.90128   1.000
    N16     N    0.47976   0.85518   0.85512   1.000
    N17     N    0.42101   0.30113   0.95141   1.000
    N18     N    0.65864   0.89098   0.65029   1.000
    N19     N    0.64259   0.28472   0.90678   1.000
    N20     N    0.15464   0.88739   0.84964   1.000
    N21     N    0.96038   0.98817   0.90321   1.000
    N22     N    0.55744   0.37979   0.80333   1.000
    N23     N    0.55122   0.82157   0.15398   1.000
    N24     N    0.66263   0.60819   0.14991   1.000
    N25     N    0.05734   0.79486   0.94946   1.000
    N26     N    0.50993   0.35881   0.64427   1.000
    N27     N    0.95747   0.18210   0.65232   1.000
    N28     N    0.83636   0.39320   0.64934   1.000
    N29     N    0.94363   0.61931   0.29916   1.000
    N30     N    0.96888   0.50913   0.40225   1.000
    N31     N    0.07909   0.69619   0.44946   1.000
    N32     N    0.00814   0.35946   0.85754   1.000
    N33     N    0.93543   0.88368   0.80092   1.000
    N34     N    0.85650   0.71448   0.40411   1.000
    N35     N    0.92108   0.30385   0.54926   1.000
    N36     N    0.46867   0.99030   0.59471   1.000
    N37     N    0.53395   0.00958   0.40626   1.000
    N38     N    0.53776   0.68159   0.65497   1.000
    N39     N    0.14377   0.28746   0.59435   1.000
    N40     N    0.98606   0.85993   0.64179   1.000
    N41     N    0.56513   0.11604   0.30308   1.000
    N42     N    0.57992   0.69940   0.04982   1.000
    N43     N    0.35947   0.72834   0.09905   1.000
    N44     N    0.52142   0.14616   0.14440   1.000
    N45     N    0.46071   0.31739   0.34680   1.000
    N46     N    0.34251   0.10727   0.35137   1.000
    N47     N    0.47170   0.51645   0.09594   1.000
    N48     N    0.64716   0.21359   0.40603   1.000
    N49     N    0.48866   0.63972   0.35901   1.000
    N50     N    0.42345   0.20136   0.45053   1.000
    N51     N    0.03135   0.68019   0.84485   1.000
    N52     N    0.01492   0.14022   0.35769   1.000
    N53     N    0.44467   0.62142   0.19933   1.000
    N54     N    0.05739   0.38314   0.69732   1.000
    N55     N    0.02819   0.49271   0.59505   1.000
    Zr56    Zr   0.11991   0.78833   0.06833   1.000
    O57     O    0.05866   0.71610   0.09879   1.000
    O58     O    0.09131   0.79061   0.01400   1.000
    O59     O    0.22961   0.76151   0.08239   1.000
    O60     O    0.09096   0.89156   0.08099   1.000
    Zr61    Zr   0.00920   0.66445   0.37269   1.000
    O62     O    0.06662   0.64271   0.36417   1.000
    O63     O    0.99408   0.60620   0.38378   1.000
    O64     O    0.03541   0.67635   0.40148   1.000
    O65     O    0.98461   0.64752   0.34512   1.000
    O66     O    0.95193   0.68321   0.38447   1.000
    O67     O    0.02215   0.72215   0.36288   1.000
    Zr68    Zr   0.87305   0.52559   0.19380   1.000
    O69     O    0.91784   0.56731   0.17112   1.000
    O70     O    0.90611   0.56898   0.24161   1.000
    O71     O    0.77765   0.56334   0.17339   1.000
    O72     O    0.91218   0.42891   0.17524   1.000
    Zr73    Zr   0.00042   0.83351   0.87345   1.000
    O74     O    0.05825   0.85371   0.86452   1.000
    O75     O    0.97605   0.85232   0.84625   1.000
    O76     O    0.98541   0.89151   0.88461   1.000
    O77     O    0.94046   0.81638   0.88389   1.000
    O78     O    0.01202   0.77601   0.86272   1.000
    O79     O    0.02177   0.81901   0.90195   1.000
    Zr80    Zr   0.38764   0.29459   0.07138   1.000
    O81     O    0.28069   0.26021   0.08281   1.000
    O82     O    0.42666   0.39567   0.08242   1.000
    O83     O    0.44844   0.22706   0.10501   1.000
    O84     O    0.40151   0.29768   0.01651   1.000
    Zr85    Zr   0.88216   0.29010   0.42980   1.000
    O86     O    0.89853   0.29649   0.48447   1.000
    O87     O    0.77466   0.25470   0.41935   1.000
    O88     O    0.92232   0.38989   0.41735   1.000
    O89     O    0.94235   0.22187   0.39658   1.000
    Zr90    Zr   0.63797   0.02874   0.19612   1.000
    O91     O    0.59737   0.93483   0.17666   1.000
    O92     O    0.59216   0.07467   0.17593   1.000
    O93     O    0.60428   0.06908   0.24475   1.000
    O94     O    0.73369   0.06338   0.17449   1.000
    Zr95    Zr   0.37501   0.52860   0.30467   1.000
    O96     O    0.40736   0.57131   0.25680   1.000
    O97     O    0.41982   0.57193   0.32590   1.000
    O98     O    0.27863   0.56488   0.32560   1.000
    O99     O    0.41534   0.43276   0.32404   1.000
    Zr100   Zr   0.11794   0.71086   0.56891   1.000
    O101    O    0.10169   0.70407   0.51424   1.000
    O102    O    0.07641   0.61150   0.58071   1.000
    O103    O    0.22539   0.74620   0.58004   1.000
    O104    O    0.05815   0.77873   0.60246   1.000
    Zr105   Zr   0.86848   0.97328   0.69489   1.000
    O106    O    0.77338   0.93502   0.67427   1.000
    O107    O    0.89950   0.93214   0.74308   1.000
    O108    O    0.91024   0.06806   0.67530   1.000
    O109    O    0.91469   0.92923   0.67405   1.000
    Zr110   Zr   0.12342   0.47021   0.80375   1.000
    O111    O    0.09284   0.43014   0.75538   1.000
    O112    O    0.07818   0.42697   0.82482   1.000
    O113    O    0.08018   0.56545   0.82266   1.000
    O114    O    0.21918   0.43215   0.82537   1.000
    Zr115   Zr   0.38153   0.21262   0.56989   1.000
    O116    O    0.27278   0.24736   0.58065   1.000
    O117    O    0.39930   0.20754   0.51526   1.000
    O118    O    0.43980   0.27922   0.60411   1.000
    O119    O    0.42197   0.11138   0.58110   1.000
    Zr120   Zr   0.88103   0.21105   0.93105   1.000
    O121    O    0.90347   0.20498   0.98545   1.000
    O122    O    0.93875   0.27863   0.89723   1.000
    O123    O    0.77191   0.24528   0.92045   1.000
    O124    O    0.91799   0.10958   0.91846   1.000
    Zr125   Zr   0.00000   0.16217   0.12569   1.000
    O126    O    0.94342   0.14005   0.13455   1.000
    O127    O    0.98421   0.21870   0.13613   1.000
    O128    O    0.05765   0.18397   0.11500   1.000
    O129    O    0.02018   0.10654   0.11471   1.000
    O130    O    0.02584   0.14576   0.15314   1.000
    O131    O    0.97493   0.17540   0.09723   1.000
    Zr132   Zr   0.98940   0.33660   0.62525   1.000
    O133    O    0.01490   0.35405   0.65228   1.000
    O134    O    0.04729   0.31817   0.61366   1.000
    O135    O    0.00395   0.39514   0.61392   1.000
    O136    O    0.96378   0.32432   0.59675   1.000
    O137    O    0.97743   0.27866   0.63540   1.000
    O138    O    0.93201   0.35783   0.63428   1.000
    Zr139   Zr   0.51053   0.67055   0.12680   1.000
    O140    O    0.48583   0.65212   0.15400   1.000
    O141    O    0.53655   0.68137   0.09793   1.000
    O142    O    0.56757   0.64716   0.13547   1.000
    O143    O    0.49597   0.61276   0.11523   1.000
    O144    O    0.52579   0.72718   0.13699   1.000
    O145    O    0.45388   0.69222   0.11639   1.000
    Zr146   Zr   0.13351   0.02724   0.30510   1.000
    O147    O    0.10356   0.06913   0.25682   1.000
    O148    O    0.09138   0.93243   0.32416   1.000
    O149    O    0.22820   0.06445   0.32651   1.000
    O150    O    0.08691   0.07117   0.32569   1.000
    Zr151   Zr   0.62544   0.47108   0.69704   1.000
    O152    O    0.57996   0.42731   0.67645   1.000
    O153    O    0.59394   0.42903   0.74537   1.000
    O154    O    0.58423   0.56660   0.67772   1.000
    O155    O    0.72104   0.43479   0.67504   1.000
    Zr156   Zr   0.50632   0.83495   0.62613   1.000
    O157    O    0.51811   0.77744   0.63694   1.000
    O158    O    0.47962   0.85392   0.65279   1.000
    O159    O    0.56344   0.85596   0.63519   1.000
    O160    O    0.44872   0.81705   0.61418   1.000
    O161    O    0.53294   0.82071   0.59805   1.000
    O162    O    0.49220   0.89321   0.61435   1.000
    Zr163   Zr   0.60995   0.70929   0.92933   1.000
    O164    O    0.71536   0.74576   0.91697   1.000
    O165    O    0.55084   0.77551   0.89514   1.000
    O166    O    0.56916   0.60902   0.91862   1.000
    O167    O    0.59765   0.70467   0.98445   1.000
    Zr168   Zr   0.49424   0.16396   0.37490   1.000
    O169    O    0.46769   0.17799   0.40326   1.000
    O170    O    0.55159   0.18257   0.38657   1.000
    O171    O    0.48167   0.22150   0.36436   1.000
    O172    O    0.52082   0.14599   0.34797   1.000
    O173    O    0.43734   0.14270   0.36608   1.000
    O174    O    0.50913   0.10607   0.38666   1.000
    Zr175   Zr   0.61930   0.78709   0.43163   1.000
    O176    O    0.57969   0.88842   0.42020   1.000
    O177    O    0.72785   0.75340   0.41949   1.000
    O178    O    0.60152   0.79152   0.48639   1.000
    O179    O    0.55994   0.71993   0.39825   1.000
    Zr180   Zr   0.48803   0.33173   0.87490   1.000
    O181    O    0.50091   0.39073   0.88636   1.000
    O182    O    0.51406   0.34975   0.84806   1.000
    O183    O    0.46290   0.32025   0.90359   1.000
    O184    O    0.43050   0.35298   0.86577   1.000
    O185    O    0.47591   0.27402   0.86470   1.000
    O186    O    0.54599   0.31410   0.88685   1.000
    Zr187   Zr   0.36412   0.97168   0.80389   1.000
    O188    O    0.39688   0.93214   0.75537   1.000
    O189    O    0.26909   0.93259   0.82501   1.000
    O190    O    0.40934   0.92646   0.82394   1.000
    O191    O    0.40696   0.06523   0.82405   1.000
loop_
    _geom_bond_atom_site_label_1
    _geom_bond_atom_site_label_2
    _geom_bond_distance
    _geom_bond_site_symmetry_2
    _ccdc_geom_bond_type
    Zr56   O57       1.55061      .   S
    N6     O57       1.84187  1_655   S
    Zr56   O58       1.55159      .   S
    N25    O58       1.84346  1_556   S
    Zr56   O59       1.56423      .   S
    N43    O59       1.85631      .   S
    Zr56   O60       1.51069      .   S
    N11    O60       1.80132  1_545   S
    Zr61   O62       0.85618      .   S
    N12    O62       1.42696      .   S
    Zr61   O63       0.88641  1_455   S
    N30    O63       1.47735      .   S
    Zr61   O64       0.88739      .   S
    N31    O64       1.47899      .   S
    Zr61   O65       0.86502  1_455   S
    N29    O65       1.44170      .   S
    Zr61   O66       0.87091  1_455   S
    N34    O66       1.45151      .   S
    Zr61   O67       0.86112      .   S
    N14    O67       1.43520      .   S
    Zr68   O69       1.04767      .   S
    N6     O69       1.61397      .   S
    Zr68   O70       1.52093      .   S
    N29    O70       1.81148      .   S
    Zr68   O71       1.48840      .   S
    N24    O71       1.77958      .   S
    Zr68   O72       1.51461      .   S
    N8     O72       1.80641      .   S
    Zr73   O74       0.86579      .   S
    N20    O74       1.44298      .   S
    Zr73   O75       0.85929  1_455   S
    N33    O75       1.43215      .   S
    Zr73   O76       0.87761  1_455   S
    N21    O76       1.46268      .   S
    Zr73   O77       0.89137  1_455   S
    N15    O77       1.48561      .   S
    Zr73   O78       0.85827      .   S
    N51    O78       1.43044      .   S
    Zr73   O79       0.86160      .   S
    N25    O79       1.43600      .   S
    Zr80   O81       1.55327      .   S
    N3     O81       1.84477      .   S
    Zr80   O82       1.52839      .   S
    N47    O82       1.82044      .   S
    Zr80   O83       1.54193      .   S
    N44    O83       1.83357      .   S
    Zr80   O84       1.52921      .   S
    N17    O84       1.81937  1_556   S
    Zr85   O86       1.53051      .   S
    N35    O86       1.82055      .   S
    Zr85   O87       1.56042      .   S
    N48    O87       1.85173      .   S
    Zr85   O88       1.52568      .   S
    N30    O88       1.81762      .   S
    Zr85   O89       1.53509      .   S
    N52    O89       1.82668  1_455   S
    Zr90   O91       1.51265  1_545   S
    N23    O91       1.80289      .   S
    Zr90   O92       1.03938      .   S
    N44    O92       1.61528      .   S
    Zr90   O93       1.52060      .   S
    N41    O93       1.81216      .   S
    Zr90   O94       1.50325      .   S
    N9     O94       1.79408      .   S
    Zr95   O96       1.51502      .   S
    N53    O96       1.80654      .   S
    Zr95   O97       1.03796      .   S
    N49    O97       1.61220      .   S
    Zr95   O98       1.49695      .   S
    N12    O98       1.78780      .   S
    Zr95   O99       1.51843      .   S
    N45    O99       1.80814      .   S
    Zr100  O101      1.53079      .   S
    N31    O101      1.82064      .   S
    Zr100  O102      1.52340      .   S
    N55    O102      1.81536      .   S
    Zr100  O103      1.56314      .   S
    N13    O103      1.85432      .   S
    Zr100  O104      1.53493      .   S
    N40    O104      1.82655  1_655   S
    Zr105  O106      1.50402      .   S
    N18    O106      1.79484      .   S
    Zr105  O107      1.50536      .   S
    N33    O107      1.79718      .   S
    Zr105  O108      1.52981  1_565   S
    N27    O108      1.82000      .   S
    Zr105  O109      1.03597      .   S
    N40    O109      1.61158      .   S
    Zr110  O111      1.50734      .   S
    N54    O111      1.79900      .   S
    Zr110  O112      1.03725      .   S
    N32    O112      1.61205      .   S
    Zr110  O113      1.52005      .   S
    N51    O113      1.80983      .   S
    Zr110  O114      1.50676      .   S
    N2     O114      1.79750      .   S
    Zr115  O116      1.55924      .   S
    N39    O116      1.85044      .   S
    Zr115  O117      1.53024      .   S
    N50    O117      1.82042      .   S
    Zr115  O118      1.54209      .   S
    N26    O118      1.83394      .   S
    Zr115  O119      1.52224      .   S
    N36    O119      1.81411  1_565   S
    Zr120  O121      1.53661      .   S
    N10    O121      1.82663  1_554   S
    Zr120  O122      1.53858      .   S
    N32    O122      1.82999  1_455   S
    Zr120  O123      1.56187      .   S
    N19    O123      1.85266      .   S
    Zr120  O124      1.51762      .   S
    N21    O124      1.80936  1_565   S
    Zr125  O126      0.85953  1_455   S
    N9     O126      1.43255      .   S
    Zr125  O127      0.85470  1_455   S
    N8     O127      1.42451      .   S
    Zr125  O128      0.88621      .   S
    N3     O128      1.47701      .   S
    Zr125  O129      0.86452      .   S
    N11    O129      1.44087      .   S
    Zr125  O130      0.86393      .   S
    N4     O130      1.43988      .   S
    Zr125  O131      0.87464  1_455   S
    N10    O131      1.45774      .   S
    Zr132  O133      0.85864  1_655   S
    N54    O133      1.43106      .   S
    Zr132  O134      0.87502  1_655   S
    N39    O134      1.45836      .   S
    Zr132  O135      0.89061  1_655   S
    N55    O135      1.48435      .   S
    Zr132  O136      0.87797      .   S
    N35    O136      1.46329      .   S
    Zr132  O137      0.86447      .   S
    N27    O137      1.44079      .   S
    Zr132  O138      0.85755      .   S
    N28    O138      1.42925      .   S
    Zr139  O140      0.86170      .   S
    N53    O140      1.43617      .   S
    Zr139  O141      0.88471      .   S
    N42    O141      1.47452      .   S
    Zr139  O142      0.86135      .   S
    N24    O142      1.43558      .   S
    Zr139  O143      0.88375      .   S
    N47    O143      1.47291      .   S
    Zr139  O144      0.85841      .   S
    N23    O144      1.43068      .   S
    Zr139  O145      0.86335      .   S
    N43    O145      1.43892      .   S
    Zr146  O147      1.50744      .   S
    N4     O147      1.79924      .   S
    Zr146  O148      1.52705  1_545   S
    N14    O148      1.81714      .   S
    Zr146  O149      1.50254      .   S
    N46    O149      1.79322      .   S
    Zr146  O150      1.03444      .   S
    N52    O150      1.61033      .   S
    Zr151  O152      1.03712      .   S
    N26    O152      1.61293      .   S
    Zr151  O153      1.51924      .   S
    N22    O153      1.81090      .   S
    Zr151  O154      1.51831      .   S
    N38    O154      1.80824      .   S
    Zr151  O155      1.49961      .   S
    N28    O155      1.79033      .   S
    Zr156  O157      0.86011      .   S
    N38    O157      1.43352      .   S
    Zr156  O158      0.85843      .   S
    N1     O158      1.43071      .   S
    Zr156  O159      0.86269      .   S
    N18    O159      1.43781      .   S
    Zr156  O160      0.88135      .   S
    N13    O160      1.46892      .   S
    Zr156  O161      0.87547      .   S
    N0     O161      1.45911      .   S
    Zr156  O162      0.88483      .   S
    N36    O162      1.47472      .   S
    Zr163  O164      1.54917      .   S
    N15    O164      1.84009      .   S
    Zr163  O165      1.52912      .   S
    N16    O165      1.82051      .   S
    Zr163  O166      1.52498      .   S
    N5     O166      1.81637      .   S
    Zr163  O167      1.53443      .   S
    N42    O167      1.82435  1_554   S
    Zr168  O169      0.88126      .   S
    N50    O169      1.46876      .   S
    Zr168  O170      0.87840      .   S
    N48    O170      1.46400      .   S
    Zr168  O171      0.85963      .   S
    N45    O171      1.43272      .   S
    Zr168  O172      0.86020      .   S
    N41    O172      1.43367      .   S
    Zr168  O173      0.85936      .   S
    N46    O173      1.43227      .   S
    Zr168  O174      0.88228      .   S
    N37    O174      1.47047      .   S
    Zr175  O176      1.52084      .   S
    N37    O176      1.81266  1_545   S
    Zr175  O177      1.56029      .   S
    N34    O177      1.85138      .   S
    Zr175  O178      1.53338      .   S
    N0     O178      1.82345      .   S
    Zr175  O179      1.54027      .   S
    N49    O179      1.83212      .   S
    Zr180  O181      0.89284      .   S
    N5     O181      1.48806      .   S
    Zr180  O182      0.85855      .   S
    N22    O182      1.43091      .   S
    Zr180  O183      0.87727      .   S
    N17    O183      1.46212      .   S
    Zr180  O184      0.86081      .   S
    N2     O184      1.43469      .   S
    Zr180  O185      0.86248      .   S
    N7     O185      1.43746      .   S
    Zr180  O186      0.87761      .   S
    N19    O186      1.46268      .   S
    Zr187  O188      1.51035      .   S
    N1     O188      1.80236      .   S
    Zr187  O189      1.51132      .   S
    N20    O189      1.80241      .   S
    Zr187  O190      1.02683      .   S
    N16    O190      1.60578      .   S
    Zr187  O191      1.52697  1_565   S
    N7     O191      1.81728      .   S
