# CIF file generated by openbabel 2.4.90, see http://openbabel.sf.net
data_I
_chemical_name_common ''
_cell_length_a 13.444
_cell_length_b 13.791
_cell_length_c 27.651
_cell_angle_alpha 90.014
_cell_angle_beta 89.914
_cell_angle_gamma 89.064
_space_group_name_H-M_alt 'P 1'
_space_group_name_Hall 'P 1'
loop_
    _symmetry_equiv_pos_as_xyz
    x,y,z
loop_
    _atom_site_label
    _atom_site_type_symbol
    _atom_site_fract_x
    _atom_site_fract_y
    _atom_site_fract_z
    _atom_site_occupancy
    Zr0     Zr   0.00000   0.16217   0.12569   1.000
    Zr1     Zr   0.89378   0.54090   0.18676   1.000
    Zr2     Zr   0.12247   0.78279   0.06739   1.000
    Zr3     Zr   0.48803   0.33173   0.87490   1.000
    Zr4     Zr   0.37893   0.95942   0.81057   1.000
    Zr5     Zr   0.61262   0.70981   0.92955   1.000
    Zr6     Zr   0.50632   0.83495   0.62613   1.000
    Zr7     Zr   0.60810   0.45771   0.69060   1.000
    Zr8     Zr   0.37871   0.21482   0.57025   1.000
    Zr9     Zr   0.00920   0.66445   0.37269   1.000
    Zr10    Zr   0.11644   0.03972   0.31206   1.000
    Zr11    Zr   0.87863   0.28897   0.42953   1.000
    Zr12    Zr   0.00042   0.83351   0.87345   1.000
    Zr13    Zr   0.10729   0.45658   0.81092   1.000
    Zr14    Zr   0.87740   0.21389   0.93134   1.000
    Zr15    Zr   0.51053   0.67055   0.12680   1.000
    Zr16    Zr   0.62117   0.04390   0.18980   1.000
    Zr17    Zr   0.38547   0.29339   0.07195   1.000
    Zr18    Zr   0.49424   0.16396   0.37490   1.000
    Zr19    Zr   0.39256   0.54186   0.31150   1.000
    Zr20    Zr   0.62240   0.78480   0.43151   1.000
    Zr21    Zr   0.98940   0.33660   0.62525   1.000
    Zr22    Zr   0.88539   0.96096   0.68750   1.000
    Zr23    Zr   0.12181   0.71226   0.56910   1.000
    Zr24    Zr   0.93157   0.39015   0.16611   1.000
    Zr25    Zr   0.77028   0.08254   0.16350   1.000
    Zr26    Zr   0.08659   0.93777   0.08536   1.000
    Zr27    Zr   0.23379   0.24245   0.08536   1.000
    Zr28    Zr   0.03286   0.68028   0.11000   1.000
    Zr29    Zr   0.90424   0.20322   0.01000   1.000
    Zr30    Zr   0.08773   0.08889   0.23751   1.000
    Zr31    Zr   0.43206   0.10163   0.83373   1.000
    Zr32    Zr   0.25587   0.41120   0.83625   1.000
    Zr33    Zr   0.54638   0.56784   0.91521   1.000
    Zr34    Zr   0.72338   0.26385   0.91906   1.000
    Zr35    Zr   0.52760   0.80136   0.87844   1.000
    Zr36    Zr   0.39853   0.29973   0.99230   1.000
    Zr37    Zr   0.57747   0.40854   0.76481   1.000
    Zr38    Zr   0.55877   0.60372   0.66864   1.000
    Zr39    Zr   0.73716   0.91412   0.66377   1.000
    Zr40    Zr   0.44364   0.06964   0.58510   1.000
    Zr41    Zr   0.27319   0.76452   0.58195   1.000
    Zr42    Zr   0.46252   0.30684   0.62050   1.000
    Zr43    Zr   0.60310   0.79293   0.51083   1.000
    Zr44    Zr   0.41319   0.91382   0.73573   1.000
    Zr45    Zr   0.06583   0.89554   0.33331   1.000
    Zr46    Zr   0.24203   0.58518   0.33620   1.000
    Zr47    Zr   0.94326   0.43129   0.41284   1.000
    Zr48    Zr   0.77612   0.73544   0.41708   1.000
    Zr49    Zr   0.96539   0.19386   0.38039   1.000
    Zr50    Zr   0.10448   0.70050   0.48988   1.000
    Zr51    Zr   0.92575   0.59153   0.26022   1.000
    Zr52    Zr   0.05367   0.60220   0.83176   1.000
    Zr53    Zr   0.23233   0.91185   0.83555   1.000
    Zr54    Zr   0.93865   0.06788   0.91387   1.000
    Zr55    Zr   0.76152   0.76542   0.91458   1.000
    Zr56    Zr   0.96145   0.30643   0.88100   1.000
    Zr57    Zr   0.07881   0.78701   0.99028   1.000
    Zr58    Zr   0.91578   0.91298   0.76236   1.000
    Zr59    Zr   0.57341   0.89899   0.16690   1.000
    Zr60    Zr   0.74110   0.57980   0.16213   1.000
    Zr61    Zr   0.44767   0.43768   0.08600   1.000
    Zr62    Zr   0.27882   0.75377   0.08864   1.000
    Zr63    Zr   0.47273   0.19967   0.12131   1.000
    Zr64    Zr   0.60164   0.70202   0.00886   1.000
    Zr65    Zr   0.42488   0.59183   0.23772   1.000
    Zr66    Zr   0.44057   0.39551   0.33325   1.000
    Zr67    Zr   0.26405   0.08481   0.33753   1.000
    Zr68    Zr   0.55850   0.93032   0.41630   1.000
    Zr69    Zr   0.72717   0.23640   0.41751   1.000
    Zr70    Zr   0.53638   0.69194   0.38245   1.000
    Zr71    Zr   0.39792   0.20578   0.49097   1.000
    Zr72    Zr   0.58701   0.08954   0.26427   1.000
    Zr73    Zr   0.93557   0.10506   0.66592   1.000
    Zr74    Zr   0.75743   0.41437   0.66413   1.000
    Zr75    Zr   0.05496   0.57039   0.58488   1.000
    Zr76    Zr   0.22484   0.26602   0.58262   1.000
    Zr77    Zr   0.03525   0.80664   0.61872   1.000
    Zr78    Zr   0.89636   0.29999   0.50875   1.000
    Zr79    Zr   0.07685   0.41086   0.73607   1.000
    O80     O    0.60713   0.70591   0.96920   1.000
    O81     O    0.89082   0.20856   0.97067   1.000
    O82     O    0.10453   0.86028   0.07637   1.000
    O83     O    0.20065   0.76828   0.07801   1.000
    O84     O    0.07767   0.73154   0.08869   1.000
    O85     O    0.10064   0.78490   0.02883   1.000
    O86     O    0.30963   0.26792   0.07866   1.000
    O87     O    0.41657   0.36553   0.07897   1.000
    O88     O    0.42910   0.24653   0.09663   1.000
    O89     O    0.39200   0.29656   0.03213   1.000
    O90     O    0.81744   0.56035   0.17445   1.000
    O91     O    0.69572   0.06322   0.17665   1.000
    O92     O    0.91268   0.46552   0.17643   1.000
    O93     O    0.59729   0.97144   0.17835   1.000
    O94     O    0.90977   0.56622   0.22349   1.000
    O95     O    0.60409   0.06672   0.22704   1.000
    O96     O    0.10208   0.06431   0.27478   1.000
    O97     O    0.40872   0.56685   0.27461   1.000
    O98     O    0.41656   0.46869   0.32237   1.000
    O99     O    0.31730   0.56352   0.32385   1.000
    O100    O    0.09113   0.96763   0.32268   1.000
    O101    O    0.19024   0.06226   0.32480   1.000
    O102    O    0.92201   0.24142   0.40496   1.000
    O103    O    0.57939   0.73837   0.40698   1.000
    O104    O    0.91095   0.36013   0.42118   1.000
    O105    O    0.59045   0.85756   0.42391   1.000
    O106    O    0.69926   0.76012   0.42429   1.000
    O107    O    0.80290   0.26268   0.42352   1.000
    O108    O    0.88750   0.29448   0.46914   1.000
    O109    O    0.61275   0.78887   0.47117   1.000
    O110    O    0.11314   0.70638   0.52949   1.000
    O111    O    0.38832   0.21030   0.53061   1.000
    O112    O    0.19750   0.73839   0.57552   1.000
    O113    O    0.08838   0.64133   0.57699   1.000
    O114    O    0.07853   0.75945   0.59391   1.000
    O115    O    0.30178   0.24042   0.57644   1.000
    O116    O    0.41118   0.14223   0.57768   1.000
    O117    O    0.42062   0.26083   0.59537   1.000
    O118    O    0.81128   0.93754   0.67563   1.000
    O119    O    0.68277   0.43604   0.67736   1.000
    O120    O    0.91048   0.03301   0.67671   1.000
    O121    O    0.58344   0.53071   0.67962   1.000
    O122    O    0.90059   0.93697   0.72493   1.000
    O123    O    0.59278   0.43312   0.72770   1.000
    O124    O    0.39606   0.93662   0.77315   1.000
    O125    O    0.09207   0.43372   0.77350   1.000
    O126    O    0.40549   0.03053   0.82215   1.000
    O127    O    0.30563   0.93564   0.82306   1.000
    O128    O    0.08048   0.52939   0.82134   1.000
    O129    O    0.18158   0.43389   0.82359   1.000
    O130    O    0.57011   0.75558   0.90399   1.000
    O131    O    0.91942   0.26016   0.90617   1.000
    O132    O    0.90803   0.14088   0.92260   1.000
    O133    O    0.68707   0.73761   0.92206   1.000
    O134    O    0.57950   0.63882   0.92238   1.000
    O135    O    0.80039   0.23887   0.92520   1.000
    N136    N    0.57729   0.79696   0.55124   1.000
    O137    O    0.58375   0.79595   0.54114   1.000
    O138    O    0.55955   0.80646   0.56996   1.000
    N139    N    0.43511   0.88554   0.69723   1.000
    O140    O    0.42963   0.89261   0.70685   1.000
    O141    O    0.45291   0.87289   0.67945   1.000
    N142    N    0.33461   0.38839   0.85056   1.000
    O143    O    0.31493   0.39409   0.84698   1.000
    O144    O    0.37297   0.37422   0.85664   1.000
    N145    N    0.15373   0.22030   0.09719   1.000
    O146    O    0.11530   0.20577   0.10431   1.000
    O147    O    0.17375   0.22584   0.09423   1.000
    N148    N    0.06892   0.11840   0.19889   1.000
    O149    O    0.05169   0.12934   0.18059   1.000
    O150    O    0.07362   0.11102   0.20854   1.000
    N151    N    0.52236   0.48907   0.90547   1.000
    O152    O    0.51378   0.44973   0.89783   1.000
    O153    O    0.52837   0.50876   0.90790   1.000
    N154    N    0.98559   0.63174   0.13565   1.000
    O155    O    0.96264   0.60903   0.14843   1.000
    O156    O    0.99740   0.64388   0.12924   1.000
    N157    N    0.45572   0.17783   0.84770   1.000
    O158    O    0.46380   0.21630   0.85450   1.000
    O159    O    0.44980   0.15878   0.84421   1.000
    N160    N    0.95790   0.31293   0.15353   1.000
    O161    O    0.95132   0.33223   0.15667   1.000
    O162    O    0.96843   0.27524   0.14657   1.000
    N163    N    0.84912   0.10317   0.14932   1.000
    O164    O    0.82941   0.09801   0.15286   1.000
    O165    O    0.88684   0.11792   0.14341   1.000
    N166    N    0.93314   0.19745   0.04980   1.000
    O167    O    0.94985   0.18863   0.06877   1.000
    O168    O    0.92592   0.19890   0.03985   1.000
    N169    N    0.05381   0.01381   0.09640   1.000
    O170    O    0.06200   0.99480   0.09364   1.000
    O171    O    0.04036   0.05090   0.10372   1.000
    N172    N    0.16231   0.60649   0.34998   1.000
    O173    O    0.12403   0.62098   0.35566   1.000
    O174    O    0.18224   0.60116   0.34654   1.000
    N175    N    0.35272   0.78721   0.59426   1.000
    O176    O    0.33284   0.78154   0.59118   1.000
    O177    O    0.39112   0.79915   0.60223   1.000
    N178    N    0.04374   0.81831   0.34653   1.000
    O179    O    0.03510   0.77984   0.35307   1.000
    O180    O    0.04926   0.83762   0.34322   1.000
    N181    N    0.84052   0.78784   0.90128   1.000
    O182    O    0.88049   0.79925   0.89432   1.000
    O183    O    0.82077   0.78223   0.90460   1.000
    N184    N    0.47976   0.85518   0.85512   1.000
    O185    O    0.49172   0.84173   0.86095   1.000
    O186    O    0.45455   0.88124   0.84398   1.000
    N187    N    0.42101   0.30113   0.95141   1.000
    O188    O    0.43777   0.30878   0.93228   1.000
    O189    O    0.41539   0.30078   0.96163   1.000
    N190    N    0.65864   0.89098   0.65029   1.000
    O191    O    0.67827   0.89676   0.65366   1.000
    O192    O    0.62056   0.87697   0.64425   1.000
    N193    N    0.64259   0.28472   0.90678   1.000
    O194    O    0.60395   0.29647   0.89881   1.000
    O195    O    0.66279   0.27950   0.90985   1.000
    N196    N    0.15464   0.88739   0.84964   1.000
    O197    O    0.11608   0.87392   0.85559   1.000
    O198    O    0.17406   0.89350   0.84612   1.000
    N199    N    0.96038   0.98817   0.90321   1.000
    O200    O    0.97039   0.94951   0.89577   1.000
    O201    O    0.95495   0.00810   0.90587   1.000
    N202    N    0.55744   0.37979   0.80333   1.000
    O203    O    0.54009   0.36778   0.82122   1.000
    O204    O    0.56244   0.38698   0.79370   1.000
    N205    N    0.55122   0.82157   0.15398   1.000
    O206    O    0.55677   0.84093   0.15721   1.000
    O207    O    0.54105   0.78382   0.14718   1.000
    N208    N    0.66263   0.60819   0.14991   1.000
    O209    O    0.68225   0.60110   0.15296   1.000
    O210    O    0.62461   0.62378   0.14413   1.000
    N211    N    0.05734   0.79486   0.94946   1.000
    O212    O    0.04311   0.80452   0.93046   1.000
    O213    O    0.06271   0.79290   0.95966   1.000
    N214    N    0.50993   0.35881   0.64427   1.000
    O215    O    0.49808   0.34582   0.63833   1.000
    O216    O    0.53447   0.38354   0.65585   1.000
    N217    N    0.95747   0.18210   0.65232   1.000
    O218    O    0.95199   0.16284   0.65572   1.000
    O219    O    0.96545   0.22073   0.64555   1.000
    N220    N    0.83636   0.39320   0.64934   1.000
    O221    O    0.87462   0.37905   0.64332   1.000
    O222    O    0.81663   0.39850   0.65304   1.000
    N223    N    0.94363   0.61931   0.29916   1.000
    O224    O    0.93916   0.61237   0.28942   1.000
    O225    O    0.96003   0.63059   0.31754   1.000
    N226    N    0.96888   0.50913   0.40225   1.000
    O227    O    0.97896   0.54796   0.39486   1.000
    O228    O    0.96248   0.48967   0.40490   1.000
    N229    N    0.07909   0.69619   0.44946   1.000
    O230    O    0.06162   0.68826   0.43027   1.000
    O231    O    0.08544   0.69727   0.45956   1.000
    N232    N    0.00814   0.35946   0.85754   1.000
    O233    O    0.99647   0.34620   0.86340   1.000
    O234    O    0.03293   0.38374   0.84588   1.000
    N235    N    0.93543   0.88368   0.80092   1.000
    O236    O    0.95168   0.87114   0.81905   1.000
    O237    O    0.93052   0.89100   0.79128   1.000
    N238    N    0.85650   0.71448   0.40411   1.000
    O239    O    0.89467   0.70197   0.39626   1.000
    O240    O    0.83640   0.71972   0.40735   1.000
    N241    N    0.92108   0.30385   0.54926   1.000
    O242    O    0.91490   0.30289   0.53913   1.000
    O243    O    0.93816   0.31204   0.56826   1.000
    N244    N    0.46867   0.99030   0.59471   1.000
    O245    O    0.47809   0.95146   0.60257   1.000
    O246    O    0.46242   0.01013   0.59231   1.000
    N247    N    0.53395   0.00958   0.40626   1.000
    O248    O    0.52403   0.04817   0.39842   1.000
    O249    O    0.54009   0.98976   0.40877   1.000
    N250    N    0.53776   0.68159   0.65497   1.000
    O251    O    0.54301   0.66212   0.65839   1.000
    O252    O    0.52990   0.71993   0.64776   1.000
    N253    N    0.14377   0.28746   0.59435   1.000
    O254    O    0.16404   0.28210   0.59142   1.000
    O255    O    0.10518   0.29974   0.60207   1.000
    N256    N    0.98606   0.85993   0.64179   1.000
    O257    O    0.99836   0.84661   0.63602   1.000
    O258    O    0.96089   0.88519   0.65322   1.000
    N259    N    0.56513   0.11604   0.30308   1.000
    O260    O    0.57060   0.10941   0.29338   1.000
    O261    O    0.54741   0.12802   0.32103   1.000
    N262    N    0.57992   0.69940   0.04982   1.000
    O263    O    0.56257   0.69219   0.06906   1.000
    O264    O    0.58535   0.70006   0.03958   1.000
    N265    N    0.35947   0.72834   0.09905   1.000
    O266    O    0.39724   0.71389   0.10599   1.000
    O267    O    0.33931   0.73469   0.09645   1.000
    N268    N    0.52142   0.14616   0.14440   1.000
    O269    O    0.54636   0.12060   0.15575   1.000
    O270    O    0.50925   0.15954   0.13863   1.000
    N271    N    0.46071   0.31739   0.34680   1.000
    O272    O    0.46909   0.27903   0.35382   1.000
    O273    O    0.45567   0.33692   0.34341   1.000
    N274    N    0.34251   0.10727   0.35137   1.000
    O275    O    0.38044   0.12144   0.35725   1.000
    O276    O    0.32289   0.10165   0.34791   1.000
    N277    N    0.47170   0.51645   0.09594   1.000
    O278    O    0.46569   0.49675   0.09345   1.000
    O279    O    0.48141   0.55497   0.10365   1.000
    N280    N    0.64716   0.21359   0.40603   1.000
    O281    O    0.66716   0.21929   0.40890   1.000
    O282    O    0.60893   0.20118   0.39825   1.000
    N283    N    0.48866   0.63972   0.35901   1.000
    O284    O    0.50059   0.65278   0.36487   1.000
    O285    O    0.46463   0.61526   0.34713   1.000
    N286    N    0.42345   0.20136   0.45053   1.000
    O287    O    0.44115   0.19201   0.43162   1.000
    O288    O    0.41707   0.20247   0.46064   1.000
    N289    N    0.03135   0.68019   0.84485   1.000
    O290    O    0.02362   0.71852   0.85200   1.000
    O291    O    0.03693   0.66070   0.84158   1.000
    N292    N    0.01492   0.14022   0.35769   1.000
    O293    O    0.00254   0.15363   0.36336   1.000
    O294    O    0.04030   0.11509   0.34628   1.000
    N295    N    0.44467   0.62142   0.19933   1.000
    O296    O    0.43972   0.61402   0.20893   1.000
    O297    O    0.46113   0.63370   0.18120   1.000
    N298    N    0.05739   0.38314   0.69732   1.000
    O299    O    0.06226   0.39007   0.70701   1.000
    O300    O    0.04039   0.37151   0.67930   1.000
    N301    N    0.02819   0.49271   0.59505   1.000
    O302    O    0.03488   0.51213   0.59251   1.000
    O303    O    0.01849   0.45368   0.60260   1.000
loop_
    _geom_bond_atom_site_label_1
    _geom_bond_atom_site_label_2
    _geom_bond_distance
    _geom_bond_site_symmetry_2
    _ccdc_geom_bond_type
    Zr64   O80       1.10025  1_554   S
    Zr5    O80       1.10025      .   S
    Zr29   O81       1.10492  1_554   S
    Zr14   O81       1.10492      .   S
    Zr2    O82       1.11949      .   S
    Zr26   O82       1.11949      .   S
    Zr2    O83       1.10679      .   S
    Zr62   O83       1.10679      .   S
    Zr2    O84       1.10573      .   S
    Zr28   O84       1.10573      .   S
    Zr2    O85       1.10644      .   S
    Zr57   O85       1.10644  1_556   S
    Zr17   O86       1.09930      .   S
    Zr27   O86       1.09930      .   S
    Zr17   O87       1.10281      .   S
    Zr61   O87       1.10281      .   S
    Zr17   O88       1.10291      .   S
    Zr63   O88       1.10291      .   S
    Zr17   O89       1.10549      .   S
    Zr36   O89       1.10549  1_556   S
    Zr60   O90       1.11057      .   S
    Zr1    O90       1.11057      .   S
    Zr25   O91       1.10253      .   S
    Zr16   O91       1.10253      .   S
    Zr24   O92       1.10344      .   S
    Zr1    O92       1.10344      .   S
    Zr59   O93       1.10107      .   S
    Zr16   O93       1.10107  1_545   S
    Zr1    O94       1.09658      .   S
    Zr51   O94       1.09658      .   S
    Zr16   O95       1.09936      .   S
    Zr72   O95       1.09936      .   S
    Zr30   O96       1.10145      .   S
    Zr10   O96       1.10145      .   S
    Zr65   O97       1.09926      .   S
    Zr19   O97       1.09926      .   S
    Zr19   O98       1.09673      .   S
    Zr66   O98       1.09673      .   S
    Zr19   O99       1.10392      .   S
    Zr46   O99       1.10392      .   S
    Zr10   O100      1.09606  1_545   S
    Zr45   O100      1.09606      .   S
    Zr10   O101      1.10282      .   S
    Zr67   O101      1.10282      .   S
    Zr49   O102      1.10357      .   S
    Zr11   O102      1.10357      .   S
    Zr70   O103      1.10336      .   S
    Zr20   O103      1.10336      .   S
    Zr47   O104      1.10400      .   S
    Zr11   O104      1.10400      .   S
    Zr68   O105      1.10542      .   S
    Zr20   O105      1.10542      .   S
    Zr48   O106      1.10057      .   S
    Zr20   O106      1.10057      .   S
    Zr69   O107      1.09920      .   S
    Zr11   O107      1.09920      .   S
    Zr11   O108      1.10463      .   S
    Zr78   O108      1.10463      .   S
    Zr20   O109      1.10539      .   S
    Zr43   O109      1.10539      .   S
    Zr50   O110      1.10471      .   S
    Zr23   O110      1.10471      .   S
    Zr71   O111      1.10510      .   S
    Zr8    O111      1.10510      .   S
    Zr23   O112      1.09974      .   S
    Zr41   O112      1.09974      .   S
    Zr23   O113      1.10481      .   S
    Zr75   O113      1.10481      .   S
    Zr23   O114      1.10403      .   S
    Zr77   O114      1.10403      .   S
    Zr8    O115      1.10059      .   S
    Zr76   O115      1.10059      .   S
    Zr8    O116      1.10496      .   S
    Zr40   O116      1.10496      .   S
    Zr8    O117      1.10241      .   S
    Zr42   O117      1.10241      .   S
    Zr39   O118      1.10279      .   S
    Zr22   O118      1.10279      .   S
    Zr74   O119      1.10448      .   S
    Zr7    O119      1.10448      .   S
    Zr73   O120      1.09586      .   S
    Zr22   O120      1.09586  1_565   S
    Zr38   O121      1.09787      .   S
    Zr7    O121      1.09787      .   S
    Zr22   O122      1.10499      .   S
    Zr58   O122      1.10499      .   S
    Zr7    O123      1.10083      .   S
    Zr37   O123      1.10083      .   S
    Zr44   O124      1.10420      .   S
    Zr4    O124      1.10420      .   S
    Zr79   O125      1.10213      .   S
    Zr13   O125      1.10213      .   S
    Zr4    O126      1.09696  1_565   S
    Zr31   O126      1.09696      .   S
    Zr4    O127      1.09892      .   S
    Zr53   O127      1.09892      .   S
    Zr13   O128      1.09952      .   S
    Zr52   O128      1.09952      .   S
    Zr13   O129      1.09953      .   S
    Zr32   O129      1.09953      .   S
    Zr35   O130      1.10187      .   S
    Zr5    O130      1.10187      .   S
    Zr56   O131      1.10525      .   S
    Zr14   O131      1.10525      .   S
    Zr54   O132      1.10797      .   S
    Zr14   O132      1.10797      .   S
    Zr55   O133      1.09711      .   S
    Zr5    O133      1.09711      .   S
    Zr33   O134      1.10013      .   S
    Zr5    O134      1.10013      .   S
    Zr34   O135      1.09919      .   S
    Zr14   O135      1.09919      .   S
    N136   O137      0.29263      .   S
    Zr43   O137      0.87789      .   S
    N136   O138      0.58365      .   S
    Zr6    O138      1.75094      .   S
    N139   O140      0.29234      .   S
    Zr44   O140      0.87703      .   S
    N139   O141      0.57229      .   S
    Zr6    O141      1.71686      .   S
    N142   O143      0.29226      .   S
    Zr32   O143      0.87678      .   S
    N142   O144      0.57387      .   S
    Zr3    O144      1.72162      .   S
    N145   O146      0.59080      .   S
    Zr0    O146      1.77241      .   S
    N145   O147      0.29246      .   S
    Zr27   O147      0.87738      .   S
    N148   O149      0.57595      .   S
    Zr0    O149      1.72786      .   S
    N148   O150      0.29236      .   S
    Zr30   O150      0.87708      .   S
    N151   O152      0.59522      .   S
    Zr3    O152      1.78567      .   S
    N151   O153      0.29246      .   S
    Zr33   O153      0.87738      .   S
    N154   O155      0.56658      .   S
    Zr1    O155      1.69974      .   S
    N154   O156      0.29238      .   S
    Zr28   O156      0.87714  1_455   S
    N157   O158      0.57498      .   S
    Zr3    O158      1.72495      .   S
    N157   O159      0.29215      .   S
    Zr31   O159      0.87645      .   S
    N160   O161      0.29237      .   S
    Zr24   O161      0.87711      .   S
    N160   O162      0.56980      .   S
    Zr0    O162      1.70941  1_455   S
    N163   O164      0.29228      .   S
    Zr25   O164      0.87685      .   S
    N163   O165      0.57302      .   S
    Zr0    O165      1.71906  1_455   S
    N166   O167      0.58310      .   S
    Zr0    O167      1.74929  1_455   S
    N166   O168      0.29248      .   S
    Zr29   O168      0.87743      .   S
    N169   O170      0.29276  1_545   S
    Zr26   O170      0.87827      .   S
    N169   O171      0.57635      .   S
    Zr0    O171      1.72904      .   S
    N172   O173      0.57078      .   S
    Zr9    O173      1.71235      .   S
    N172   O174      0.29247      .   S
    Zr46   O174      0.87742      .   S
    N175   O176      0.29252      .   S
    Zr41   O176      0.87756      .   S
    N175   O177      0.58757      .   S
    Zr6    O177      1.76271      .   S
    N178   O179      0.57408      .   S
    Zr9    O179      1.72224      .   S
    N178   O180      0.29224      .   S
    Zr45   O180      0.87672      .   S
    N181   O182      0.59424      .   S
    Zr12   O182      1.78273  1_455   S
    N181   O183      0.29245      .   S
    Zr55   O183      0.87736      .   S
    N184   O185      0.29221      .   S
    Zr35   O185      0.87663      .   S
    N184   O186      0.57900      .   S
    Zr4    O186      1.73701      .   S
    N187   O188      0.58485      .   S
    Zr3    O188      1.75455      .   S
    N187   O189      0.29254      .   S
    Zr36   O189      0.87763      .   S
    N190   O191      0.29233      .   S
    Zr39   O191      0.87700      .   S
    N190   O192      0.57512      .   S
    Zr6    O192      1.72537      .   S
    N193   O194      0.58507      .   S
    Zr3    O194      1.75522      .   S
    N193   O195      0.29249      .   S
    Zr34   O195      0.87747      .   S
    N196   O197      0.57719      .   S
    Zr12   O197      1.73157      .   S
    N196   O198      0.29228      .   S
    Zr53   O198      0.87683      .   S
    N199   O200      0.58507      .   S
    Zr12   O200      1.75521  1_455   S
    N199   O201      0.29258  1_565   S
    Zr54   O201      0.87775      .   S
    N202   O203      0.57236      .   S
    Zr3    O203      1.71709      .   S
    N202   O204      0.29230      .   S
    Zr37   O204      0.87689      .   S
    N205   O206      0.29229      .   S
    Zr59   O206      0.87687      .   S
    N205   O207      0.57227      .   S
    Zr15   O207      1.71681      .   S
    N208   O209      0.29241      .   S
    Zr60   O209      0.87723      .   S
    N208   O210      0.57423      .   S
    Zr15   O210      1.72269      .   S
    N211   O212      0.57440      .   S
    Zr12   O212      1.72320      .   S
    N211   O213      0.29251      .   S
    Zr57   O213      0.87754      .   S
    N214   O215      0.29239      .   S
    Zr42   O215      0.87716      .   S
    N214   O216      0.57588      .   S
    Zr7    O216      1.72764      .   S
    N217   O218      0.29228      .   S
    Zr73   O218      0.87685      .   S
    N217   O219      0.57632      .   S
    Zr21   O219      1.72895      .   S
    N220   O221      0.57170      .   S
    Zr21   O221      1.71510      .   S
    N220   O222      0.29230      .   S
    Zr74   O222      0.87690      .   S
    N223   O224      0.29235      .   S
    Zr51   O224      0.87704      .   S
    N223   O225      0.57668      .   S
    Zr9    O225      1.73004  1_455   S
    N226   O227      0.59094      .   S
    Zr9    O227      1.77282  1_455   S
    N226   O228      0.29247      .   S
    Zr47   O228      0.87742      .   S
    N229   O230      0.59160      .   S
    Zr9    O230      1.77479      .   S
    N229   O231      0.29271      .   S
    Zr50   O231      0.87814      .   S
    N232   O233      0.29194  1_455   S
    Zr56   O233      0.87581      .   S
    N232   O234      0.57481      .   S
    Zr13   O234      1.72443      .   S
    N235   O236      0.57286      .   S
    Zr12   O236      1.71858  1_455   S
    N235   O237      0.29234      .   S
    Zr58   O237      0.87702      .   S
    N238   O239      0.58060      .   S
    Zr9    O239      1.74181  1_455   S
    N238   O240      0.29244      .   S
    Zr48   O240      0.87733      .   S
    N241   O242      0.29258      .   S
    Zr78   O242      0.87774      .   S
    N241   O243      0.58532      .   S
    Zr21   O243      1.75595      .   S
    N244   O245      0.58989      .   S
    Zr6    O245      1.76966      .   S
    N244   O246      0.29258  1_565   S
    Zr40   O246      0.87773      .   S
    N247   O248      0.58819      .   S
    Zr18   O248      1.76456      .   S
    N247   O249      0.29253  1_545   S
    Zr68   O249      0.87759      .   S
    N250   O251      0.29224      .   S
    Zr38   O251      0.87673      .   S
    N250   O252      0.57341      .   S
    Zr6    O252      1.72022      .   S
    N253   O254      0.29249      .   S
    Zr76   O254      0.87746      .   S
    N253   O255      0.58335      .   S
    Zr21   O255      1.75004  1_655   S
    N256   O257      0.29230      .   S
    Zr77   O257      0.87691  1_455   S
    N256   O258      0.57572      .   S
    Zr22   O258      1.72715      .   S
    N259   O260      0.29230      .   S
    Zr72   O260      0.87691      .   S
    N259   O261      0.57347      .   S
    Zr18   O261      1.72041      .   S
    N262   O263      0.58981      .   S
    Zr15   O263      1.76943      .   S
    N262   O264      0.29247      .   S
    Zr64   O264      0.87742      .   S
    N265   O266      0.57557      .   S
    Zr15   O266      1.72671      .   S
    N265   O267      0.29262      .   S
    Zr62   O267      0.87786      .   S
    N268   O269      0.57594      .   S
    Zr16   O269      1.72781      .   S
    N268   O270      0.29224      .   S
    Zr63   O270      0.87671      .   S
    N271   O272      0.57309      .   S
    Zr18   O272      1.71927      .   S
    N271   O273      0.29211      .   S
    Zr66   O273      0.87634      .   S
    N274   O275      0.57291      .   S
    Zr18   O275      1.71873      .   S
    N274   O276      0.29229      .   S
    Zr67   O276      0.87687      .   S
    N277   O278      0.29278      .   S
    Zr61   O278      0.87835      .   S
    N277   O279      0.58916      .   S
    Zr15   O279      1.76749      .   S
    N280   O281      0.29247      .   S
    Zr69   O281      0.87741      .   S
    N280   O282      0.58560      .   S
    Zr18   O282      1.75680      .   S
    N283   O284      0.29224      .   S
    Zr70   O284      0.87672      .   S
    N283   O285      0.57433      .   S
    Zr19   O285      1.72298      .   S
    N286   O287      0.58751      .   S
    Zr18   O287      1.76252      .   S
    N286   O288      0.29262      .   S
    Zr71   O288      0.87786      .   S
    N289   O290      0.57218      .   S
    Zr12   O290      1.71653      .   S
    N289   O291      0.29228      .   S
    Zr52   O291      0.87685      .   S
    N292   O293      0.29231      .   S
    Zr49   O293      0.87694  1_655   S
    N292   O294      0.57598      .   S
    Zr10   O294      1.72793      .   S
    N295   O296      0.29230      .   S
    Zr65   O296      0.87690      .   S
    N295   O297      0.57447      .   S
    Zr15   O297      1.72340      .   S
    N298   O299      0.29225      .   S
    Zr79   O299      0.87676      .   S
    N298   O300      0.57243      .   S
    Zr21   O300      1.71728  1_655   S
    N301   O302      0.29250      .   S
    Zr75   O302      0.87749      .   S
    N301   O303      0.59374      .   S
    Zr21   O303      1.78122  1_655   S
