# CIF file generated by openbabel 2.4.90, see http://openbabel.sf.net
data_I
_chemical_name_common ''
_cell_length_a 10.9615
_cell_length_b 12.758
_cell_length_c 20.066
_cell_angle_alpha 90.035
_cell_angle_beta 90.047
_cell_angle_gamma 90.126
_space_group_name_H-M_alt 'P 1'
_space_group_name_Hall 'P 1'
loop_
    _symmetry_equiv_pos_as_xyz
    x,y,z
loop_
    _atom_site_label
    _atom_site_type_symbol
    _atom_site_fract_x
    _atom_site_fract_y
    _atom_site_fract_z
    _atom_site_occupancy
    H0      H    0.18815   0.33619   0.69862   1.000
    H1      H    0.23496   0.52377   0.76353   1.000
    H2      H    0.13980   0.66192   0.53924   1.000
    H3      H    0.29587   0.62827   0.52779   1.000
    H4      H    0.17923   0.54256   0.49869   1.000
    H5      H    0.01080   0.01948   0.37277   1.000
    H6      H    0.06802   0.08052   0.50196   1.000
    H7      H    0.06771   0.38308   0.31713   1.000
    H8      H    0.05615   0.43052   0.39994   1.000
    H9      H    0.20042   0.39016   0.36862   1.000
    H10     H    0.81006   0.33602   0.80166   1.000
    H11     H    0.76306   0.52333   0.73677   1.000
    H12     H    0.85993   0.66216   0.96092   1.000
    H13     H    0.70380   0.62836   0.97257   1.000
    H14     H    0.82025   0.54284   0.00154   1.000
    H15     H    0.98929   0.01955   0.12648   1.000
    H16     H    0.93121   0.08088   0.99755   1.000
    H17     H    0.93436   0.38331   0.18266   1.000
    H18     H    0.94441   0.43073   0.09981   1.000
    H19     H    0.80072   0.38992   0.13191   1.000
    H20     H    0.68768   0.16352   0.80156   1.000
    H21     H    0.73487   0.97615   0.73675   1.000
    H22     H    0.63962   0.83814   0.96117   1.000
    H23     H    0.79604   0.87156   0.97237   1.000
    H24     H    0.68025   0.95748   0.00162   1.000
    H25     H    0.51091   0.48031   0.12690   1.000
    H26     H    0.56801   0.41905   0.99784   1.000
    H27     H    0.56739   0.11687   0.18290   1.000
    H28     H    0.55620   0.06927   0.10009   1.000
    H29     H    0.70032   0.11024   0.13171   1.000
    H30     H    0.31031   0.16433   0.69823   1.000
    H31     H    0.26362   0.97700   0.76328   1.000
    H32     H    0.35957   0.83778   0.53937   1.000
    H33     H    0.20362   0.87153   0.52745   1.000
    H34     H    0.32054   0.95699   0.49857   1.000
    H35     H    0.48933   0.48058   0.37313   1.000
    H36     H    0.43130   0.41950   0.50212   1.000
    H37     H    0.43460   0.11639   0.31747   1.000
    H38     H    0.44372   0.06939   0.40045   1.000
    H39     H    0.30046   0.10985   0.36775   1.000
    H40     H    0.81149   0.66374   0.30135   1.000
    H41     H    0.76467   0.47614   0.23646   1.000
    H42     H    0.85997   0.33814   0.46079   1.000
    H43     H    0.70383   0.37160   0.47221   1.000
    H44     H    0.82030   0.45747   0.50132   1.000
    H45     H    0.98925   0.98064   0.62715   1.000
    H46     H    0.93183   0.91944   0.49799   1.000
    H47     H    0.93234   0.61682   0.68279   1.000
    H48     H    0.94391   0.56942   0.59998   1.000
    H49     H    0.79962   0.60971   0.63131   1.000
    H50     H    0.18994   0.66409   0.19825   1.000
    H51     H    0.23674   0.47677   0.26316   1.000
    H52     H    0.13996   0.33781   0.03908   1.000
    H53     H    0.29602   0.37177   0.02732   1.000
    H54     H    0.17938   0.45715   0.00000   1.000
    H55     H    0.01085   0.98041   0.87343   1.000
    H56     H    0.06848   0.91917   0.00241   1.000
    H57     H    0.06568   0.61683   0.81725   1.000
    H58     H    0.05577   0.56938   0.90009   1.000
    H59     H    0.19939   0.61031   0.86796   1.000
    H60     H    0.31223   0.83658   0.19848   1.000
    H61     H    0.26496   0.02395   0.26327   1.000
    H62     H    0.36010   0.16184   0.03878   1.000
    H63     H    0.20362   0.12854   0.02768   1.000
    H64     H    0.31925   0.04252   0.00000   1.000
    H65     H    0.48877   0.51976   0.87311   1.000
    H66     H    0.43172   0.58106   0.00218   1.000
    H67     H    0.43268   0.88328   0.81715   1.000
    H68     H    0.44369   0.93082   0.89998   1.000
    H69     H    0.29963   0.88992   0.86825   1.000
    H70     H    0.68961   0.83558   0.30181   1.000
    H71     H    0.73628   0.02290   0.23674   1.000
    H72     H    0.64010   0.16231   0.46053   1.000
    H73     H    0.79594   0.12835   0.47264   1.000
    H74     H    0.67874   0.04306   0.50140   1.000
    H75     H    0.51052   0.51938   0.62693   1.000
    H76     H    0.56849   0.58043   0.49792   1.000
    H77     H    0.56540   0.88356   0.68257   1.000
    H78     H    0.55605   0.93058   0.59961   1.000
    H79     H    0.69941   0.89013   0.63219   1.000
    C80     C    0.20527   0.54013   0.60407   1.000
    C81     C    0.19887   0.41467   0.67880   1.000
    C82     C    0.22127   0.50784   0.71104   1.000
    C83     C    0.20480   0.59641   0.53908   1.000
    C84     C    0.07837   0.26399   0.39148   1.000
    C85     C    0.03769   0.09528   0.39223   1.000
    C86     C    0.06439   0.12585   0.45634   1.000
    C87     C    0.10199   0.37269   0.36806   1.000
    C88     C    0.79374   0.54014   0.89619   1.000
    C89     C    0.79957   0.41453   0.82147   1.000
    C90     C    0.77707   0.50755   0.78925   1.000
    C91     C    0.79469   0.59657   0.96116   1.000
    C92     C    0.92220   0.26414   0.10830   1.000
    C93     C    0.96231   0.09551   0.10722   1.000
    C94     C    0.93526   0.12614   0.04321   1.000
    C95     C    0.89913   0.37277   0.13191   1.000
    C96     C    0.70547   0.95979   0.89621   1.000
    C97     C    0.69861   0.08512   0.82142   1.000
    C98     C    0.72119   0.99205   0.78922   1.000
    C99     C    0.70511   0.90355   0.96121   1.000
    C100    C    0.57830   0.23589   0.10849   1.000
    C101    C    0.53780   0.40445   0.10754   1.000
    C102    C    0.56443   0.37382   0.04348   1.000
    C103    C    0.60189   0.12733   0.13204   1.000
    C104    C    0.29386   0.95994   0.60388   1.000
    C105    C    0.29979   0.08573   0.67848   1.000
    C106    C    0.27743   0.99270   0.71079   1.000
    C107    C    0.29465   0.90336   0.53896   1.000
    C108    C    0.42213   0.23589   0.39156   1.000
    C109    C    0.46242   0.40466   0.39248   1.000
    C110    C    0.43533   0.37411   0.45650   1.000
    C111    C    0.39893   0.12712   0.36806   1.000
    C112    C    0.79434   0.45983   0.39593   1.000
    C113    C    0.80075   0.58527   0.32119   1.000
    C114    C    0.77834   0.49209   0.28896   1.000
    C115    C    0.79485   0.40357   0.46092   1.000
    C116    C    0.92163   0.73593   0.60846   1.000
    C117    C    0.96224   0.90465   0.60771   1.000
    C118    C    0.93551   0.87409   0.54361   1.000
    C119    C    0.89804   0.62722   0.63187   1.000
    C120    C    0.20608   0.45993   0.10374   1.000
    C121    C    0.20039   0.58557   0.17844   1.000
    C122    C    0.22278   0.49254   0.21068   1.000
    C123    C    0.20510   0.40347   0.03878   1.000
    C124    C    0.07775   0.73598   0.89163   1.000
    C125    C    0.03754   0.90459   0.89273   1.000
    C126    C    0.06452   0.87393   0.95674   1.000
    C127    C    0.10096   0.62738   0.86799   1.000
    C128    C    0.29424   0.04027   0.10380   1.000
    C129    C    0.30123   0.91497   0.17861   1.000
    C130    C    0.27860   0.00803   0.21079   1.000
    C131    C    0.29453   0.09649   0.03879   1.000
    C132    C    0.42156   0.76423   0.89153   1.000
    C133    C    0.46195   0.59564   0.89248   1.000
    C134    C    0.43534   0.62629   0.95653   1.000
    C135    C    0.39805   0.87280   0.86799   1.000
    C136    C    0.70582   0.04002   0.39613   1.000
    C137    C    0.70004   0.91419   0.32154   1.000
    C138    C    0.72242   0.00722   0.28923   1.000
    C139    C    0.70488   0.09664   0.46103   1.000
    C140    C    0.57769   0.76407   0.60846   1.000
    C141    C    0.53743   0.59530   0.60757   1.000
    C142    C    0.56449   0.62583   0.54354   1.000
    C143    C    0.60094   0.87284   0.63195   1.000
    N144    N    0.22473   0.58685   0.66380   1.000
    N145    N    0.18879   0.43521   0.61116   1.000
    N146    N    0.08929   0.23248   0.45566   1.000
    N147    N    0.04661   0.18270   0.35143   1.000
    N148    N    0.77393   0.58665   0.83648   1.000
    N149    N    0.81012   0.43527   0.88908   1.000
    N150    N    0.91075   0.23273   0.04408   1.000
    N151    N    0.95402   0.18285   0.14816   1.000
    N152    N    0.72495   0.91313   0.83650   1.000
    N153    N    0.68869   0.06459   0.88906   1.000
    N154    N    0.58919   0.26726   0.04428   1.000
    N155    N    0.54667   0.31717   0.14844   1.000
    N156    N    0.27429   0.91347   0.66363   1.000
    N157    N    0.31017   0.06490   0.61089   1.000
    N158    N    0.41073   0.26744   0.45573   1.000
    N159    N    0.45402   0.31717   0.35163   1.000
    N160    N    0.77486   0.41310   0.33620   1.000
    N161    N    0.81082   0.56475   0.38883   1.000
    N162    N    0.91063   0.76746   0.54428   1.000
    N163    N    0.95335   0.81722   0.64851   1.000
    N164    N    0.22583   0.41342   0.16346   1.000
    N165    N    0.18984   0.56482   0.11083   1.000
    N166    N    0.08910   0.76735   0.95585   1.000
    N167    N    0.04596   0.81728   0.85176   1.000
    N168    N    0.27478   0.08694   0.16350   1.000
    N169    N    0.31111   0.93548   0.11096   1.000
    N170    N    0.41064   0.73285   0.95574   1.000
    N171    N    0.45312   0.68293   0.85157   1.000
    N172    N    0.72546   0.08647   0.33638   1.000
    N173    N    0.68957   0.93506   0.38913   1.000
    N174    N    0.58908   0.73250   0.54429   1.000
    N175    N    0.54585   0.68280   0.64840   1.000
loop_
    _geom_bond_atom_site_label_1
    _geom_bond_atom_site_label_2
    _geom_bond_distance
    _geom_bond_site_symmetry_2
    _ccdc_geom_bond_type
    H64    C131      1.07418      .   S
    H54    C123      1.07473      .   S
    H14    C91       1.09807  1_554   S
    H24    C99       1.09806  1_554   S
    H66    C134      1.08354  1_554   S
    H56    C126      1.08353  1_554   S
    H53    C123      1.10081      .   S
    H63    C131      1.10073      .   S
    C123   H52       1.09952      .   S
    C123   C120      1.48898      .   S
    H62    C131      1.09959      .   S
    C131   C128      1.48899      .   S
    C94    N150      1.38687      .   S
    C94    C93       1.37507      .   S
    C94    H16       1.08352  1_554   S
    C102   N154      1.38692      .   S
    C102   C101      1.37505      .   S
    C102   H26       1.08352  1_554   S
    N150   C92       1.35472      .   S
    N154   C100      1.35475      .   S
    H18    C95       1.09890      .   S
    H28    C103      1.09893      .   S
    C120   N165      1.35781      .   S
    C120   N164      1.35487      .   S
    C128   N169      1.35775  1_545   S
    C128   N168      1.35482      .   S
    C93    H15       1.08513      .   S
    C93    N151      1.38726      .   S
    C101   H25       1.08415      .   S
    C101   N155      1.38729      .   S
    C92    C95       1.48669      .   S
    C92    N151      1.35620      .   S
    C100   C103      1.48671      .   S
    C100   N155      1.35621      .   S
    N165   C121      1.38684      .   S
    N169   C129      1.38687      .   S
    H29    C103      1.10116      .   S
    H19    C95       1.10117      .   S
    C95    H17       1.09685      .   S
    C103   H27       1.09685      .   S
    N164   C122      1.38453      .   S
    N168   C130      1.38452      .   S
    C121   H50       1.08375      .   S
    C121   C122      1.37455      .   S
    C129   H60       1.08376      .   S
    C129   C130      1.37441  1_565   S
    C122   H51       1.08295      .   S
    C130   H61       1.08285      .   S
    H41    C114      1.08291      .   S
    H71    C138      1.08295      .   S
    C114   C113      1.37452      .   S
    C114   N160      1.38454      .   S
    C138   C137      1.37444  1_545   S
    C138   N172      1.38454      .   S
    H40    C113      1.08376      .   S
    H70    C137      1.08376      .   S
    H7     C87       1.09683      .   S
    H37    C111      1.09684      .   S
    C113   N161      1.38687      .   S
    C137   N173      1.38683      .   S
    N160   C112      1.35483      .   S
    N172   C136      1.35489      .   S
    N147   C84       1.35625      .   S
    N147   C85       1.38729      .   S
    N159   C108      1.35623      .   S
    N159   C109      1.38724      .   S
    H39    C111      1.10118      .   S
    C87    H9        1.10119      .   S
    C87    C84       1.48676      .   S
    C87    H8        1.09892      .   S
    C111   C108      1.48665      .   S
    C111   H38       1.09886      .   S
    H5     C85       1.08298      .   S
    H35    C109      1.08419      .   S
    N161   C112      1.35785      .   S
    N173   C136      1.35770  1_565   S
    C84    N146      1.35474      .   S
    C108   N158      1.35468      .   S
    C85    C86       1.37503      .   S
    C109   C110      1.37511      .   S
    C112   C115      1.48896      .   S
    C136   C139      1.48896      .   S
    N146   C86       1.38694      .   S
    N158   C110      1.38690      .   S
    C86    H6        1.08393      .   S
    C110   H36       1.08393      .   S
    H72    C139      1.09949      .   S
    H42    C115      1.09954      .   S
    C115   H43       1.10081      .   S
    C115   H44       1.09807      .   S
    C139   H73       1.10084      .   S
    C139   H74       1.09808      .   S
    H76    C142      1.08393      .   S
    H46    C118      1.08394      .   S
    H34    C107      1.09808      .   S
    H4     C83       1.09806      .   S
    H33    C107      1.10081      .   S
    H3     C83       1.10082      .   S
    C107   H32       1.09950      .   S
    C107   C104      1.48896      .   S
    C83    H2        1.09952      .   S
    C83    C80       1.48899      .   S
    C142   N174      1.38686      .   S
    C142   C141      1.37511      .   S
    C118   N162      1.38695      .   S
    C118   C117      1.37501      .   S
    N162   C116      1.35475      .   S
    N174   C140      1.35470      .   S
    H78    C143      1.09889      .   S
    H48    C119      1.09894      .   S
    C104   N157      1.35772  1_565   S
    C104   N156      1.35488      .   S
    C80    N145      1.35786      .   S
    C80    N144      1.35484      .   S
    C141   H75       1.08420      .   S
    C141   N175      1.38723      .   S
    C117   H45       1.08526      .   S
    C117   N163      1.38730      .   S
    C140   C143      1.48667      .   S
    C140   N175      1.35622      .   S
    C116   C119      1.48676      .   S
    C116   N163      1.35624      .   S
    N157   C105      1.38684      .   S
    N145   C81       1.38687      .   S
    H49    C119      1.10118      .   S
    C119   H47       1.09683      .   S
    C143   H79       1.10118      .   S
    C143   H77       1.09684      .   S
    N156   C106      1.38455      .   S
    N144   C82       1.38453      .   S
    C105   H30       1.08378      .   S
    C105   C106      1.37444  1_545   S
    C81    H0        1.08375      .   S
    C81    C82       1.37454      .   S
    C106   H31       1.08292      .   S
    C82    H1        1.08289      .   S
    H21    C98       1.08285      .   S
    H11    C90       1.08294      .   S
    C98    C97       1.37441  1_565   S
    C98    N152      1.38451      .   S
    C90    C89       1.37456      .   S
    C90    N148      1.38453      .   S
    H20    C97       1.08376      .   S
    H10    C89       1.08376      .   S
    H67    C135      1.09685      .   S
    H57    C127      1.09684      .   S
    C97    N153      1.38688      .   S
    C89    N149      1.38683      .   S
    N148   C88       1.35489      .   S
    N152   C96       1.35485      .   S
    N171   C132      1.35620      .   S
    N171   C133      1.38730      .   S
    N167   C124      1.35620      .   S
    N167   C125      1.38725      .   S
    H59    C127      1.10115      .   S
    C135   H69       1.10115      .   S
    C135   C132      1.48669      .   S
    C135   H68       1.09893      .   S
    C127   C124      1.48667      .   S
    C127   H58       1.09891      .   S
    H65    C133      1.08416      .   S
    H55    C125      1.08290      .   S
    N153   C96       1.35774  1_545   S
    N149   C88       1.35780      .   S
    C132   N170      1.35473      .   S
    C124   N166      1.35470      .   S
    C133   C134      1.37503      .   S
    C125   C126      1.37506      .   S
    C88    C91       1.48898      .   S
    C96    C99       1.48899      .   S
    N170   C134      1.38693      .   S
    N166   C126      1.38689      .   S
    H12    C91       1.09954      .   S
    C91    H13       1.10080      .   S
    H22    C99       1.09957      .   S
    C99    H23       1.10078      .   S
