# CIF file generated by openbabel 2.4.90, see http://openbabel.sf.net
data_I
_chemical_name_common ''
_cell_length_a 10.9615
_cell_length_b 12.758
_cell_length_c 20.066
_cell_angle_alpha 90.035
_cell_angle_beta 90.047
_cell_angle_gamma 90.126
_space_group_name_H-M_alt 'P 1'
_space_group_name_Hall 'P 1'
loop_
    _symmetry_equiv_pos_as_xyz
    x,y,z
loop_
    _atom_site_label
    _atom_site_type_symbol
    _atom_site_fract_x
    _atom_site_fract_y
    _atom_site_fract_z
    _atom_site_occupancy
    Ag0     Ag   0.85401   0.32885   0.96500   1.000
    Ag1     Ag   0.64528   0.17112   0.96504   1.000
    Ag2     Ag   0.35398   0.17133   0.53490   1.000
    Ag3     Ag   0.24953   0.75019   0.67512   1.000
    Ag4     Ag   0.74947   0.74989   0.82512   1.000
    Ag5     Ag   0.00038   0.18793   0.24979   1.000
    Ag6     Ag   0.50040   0.31194   0.25005   1.000
    Ag7     Ag   0.85433   0.67135   0.46489   1.000
    Ag8     Ag   0.14587   0.67122   0.03492   1.000
    Ag9     Ag   0.35454   0.82898   0.03498   1.000
    Ag10    Ag   0.64579   0.82861   0.46511   1.000
    Ag11    Ag   0.75018   0.24975   0.32488   1.000
    Ag12    Ag   0.25027   0.25019   0.17485   1.000
    Ag13    Ag   0.99961   0.81210   0.75014   1.000
    Ag14    Ag   0.49940   0.68810   0.74998   1.000
    H15     H    0.18815   0.33619   0.69862   1.000
    H16     H    0.23496   0.52377   0.76353   1.000
    H17     H    0.13980   0.66192   0.53924   1.000
    H18     H    0.29587   0.62827   0.52779   1.000
    H19     H    0.17923   0.54256   0.49869   1.000
    H20     H    0.01080   0.01948   0.37277   1.000
    H21     H    0.06802   0.08052   0.50196   1.000
    H22     H    0.06771   0.38308   0.31713   1.000
    H23     H    0.05615   0.43052   0.39994   1.000
    H24     H    0.20042   0.39016   0.36862   1.000
    H25     H    0.81006   0.33602   0.80166   1.000
    H26     H    0.76306   0.52333   0.73677   1.000
    H27     H    0.85993   0.66216   0.96092   1.000
    H28     H    0.70380   0.62836   0.97257   1.000
    H29     H    0.82025   0.54284   0.00154   1.000
    H30     H    0.98929   0.01955   0.12648   1.000
    H31     H    0.93121   0.08088   0.99755   1.000
    Ag32    Ag   0.14545   0.32861   0.53507   1.000
    H33     H    0.93436   0.38331   0.18266   1.000
    H34     H    0.94441   0.43073   0.09981   1.000
    H35     H    0.80072   0.38992   0.13191   1.000
    H36     H    0.68768   0.16352   0.80156   1.000
    H37     H    0.73487   0.97615   0.73675   1.000
    H38     H    0.63962   0.83814   0.96117   1.000
    H39     H    0.79604   0.87156   0.97237   1.000
    H40     H    0.68025   0.95748   0.00162   1.000
    H41     H    0.51091   0.48031   0.12690   1.000
    H42     H    0.56801   0.41905   0.99784   1.000
    H43     H    0.56739   0.11687   0.18290   1.000
    H44     H    0.55620   0.06927   0.10009   1.000
    H45     H    0.70032   0.11024   0.13171   1.000
    H46     H    0.31031   0.16433   0.69823   1.000
    H47     H    0.26362   0.97700   0.76328   1.000
    H48     H    0.35957   0.83778   0.53937   1.000
    H49     H    0.20362   0.87153   0.52745   1.000
    H50     H    0.32054   0.95699   0.49857   1.000
    H51     H    0.48933   0.48058   0.37313   1.000
    H52     H    0.43130   0.41950   0.50212   1.000
    H53     H    0.43460   0.11639   0.31747   1.000
    H54     H    0.44372   0.06939   0.40045   1.000
    H55     H    0.30046   0.10985   0.36775   1.000
    H56     H    0.81149   0.66374   0.30135   1.000
    H57     H    0.76467   0.47614   0.23646   1.000
    H58     H    0.85997   0.33814   0.46079   1.000
    H59     H    0.70383   0.37160   0.47221   1.000
    H60     H    0.82030   0.45747   0.50132   1.000
    H61     H    0.98925   0.98064   0.62715   1.000
    H62     H    0.93183   0.91944   0.49799   1.000
    H63     H    0.93234   0.61682   0.68279   1.000
    H64     H    0.94391   0.56942   0.59998   1.000
    H65     H    0.79962   0.60971   0.63131   1.000
    H66     H    0.18994   0.66409   0.19825   1.000
    H67     H    0.23674   0.47677   0.26316   1.000
    H68     H    0.13996   0.33781   0.03908   1.000
    H69     H    0.29602   0.37177   0.02732   1.000
    H70     H    0.17938   0.45715   0.00000   1.000
    H71     H    0.01085   0.98041   0.87343   1.000
    H72     H    0.06848   0.91917   0.00241   1.000
    H73     H    0.06568   0.61683   0.81725   1.000
    H74     H    0.05577   0.56938   0.90009   1.000
    H75     H    0.19939   0.61031   0.86796   1.000
    H76     H    0.31223   0.83658   0.19848   1.000
    H77     H    0.26496   0.02395   0.26327   1.000
    H78     H    0.36010   0.16184   0.03878   1.000
    H79     H    0.20362   0.12854   0.02768   1.000
    H80     H    0.31925   0.04252   0.00000   1.000
    H81     H    0.48877   0.51976   0.87311   1.000
    H82     H    0.43172   0.58106   0.00218   1.000
    H83     H    0.43268   0.88328   0.81715   1.000
    H84     H    0.44369   0.93082   0.89998   1.000
    H85     H    0.29963   0.88992   0.86825   1.000
    H86     H    0.68961   0.83558   0.30181   1.000
    H87     H    0.73628   0.02290   0.23674   1.000
    H88     H    0.64010   0.16231   0.46053   1.000
    H89     H    0.79594   0.12835   0.47264   1.000
    H90     H    0.67874   0.04306   0.50140   1.000
    H91     H    0.51052   0.51938   0.62693   1.000
    H92     H    0.56849   0.58043   0.49792   1.000
    H93     H    0.56540   0.88356   0.68257   1.000
    H94     H    0.55605   0.93058   0.59961   1.000
    H95     H    0.69941   0.89013   0.63219   1.000
    C96     C    0.20527   0.54013   0.60407   1.000
    C97     C    0.19887   0.41467   0.67880   1.000
    C98     C    0.22127   0.50784   0.71104   1.000
    C99     C    0.20480   0.59641   0.53908   1.000
    C100    C    0.07837   0.26399   0.39148   1.000
    C101    C    0.03769   0.09528   0.39223   1.000
    C102    C    0.06439   0.12585   0.45634   1.000
    C103    C    0.10199   0.37269   0.36806   1.000
    C104    C    0.79374   0.54014   0.89619   1.000
    C105    C    0.79957   0.41453   0.82147   1.000
    C106    C    0.77707   0.50755   0.78925   1.000
    C107    C    0.79469   0.59657   0.96116   1.000
    C108    C    0.92220   0.26414   0.10830   1.000
    C109    C    0.96231   0.09551   0.10722   1.000
    C110    C    0.93526   0.12614   0.04321   1.000
    C111    C    0.89913   0.37277   0.13191   1.000
    C112    C    0.70547   0.95979   0.89621   1.000
    C113    C    0.69861   0.08512   0.82142   1.000
    C114    C    0.72119   0.99205   0.78922   1.000
    C115    C    0.70511   0.90355   0.96121   1.000
    C116    C    0.57830   0.23589   0.10849   1.000
    C117    C    0.53780   0.40445   0.10754   1.000
    C118    C    0.56443   0.37382   0.04348   1.000
    C119    C    0.60189   0.12733   0.13204   1.000
    C120    C    0.29386   0.95994   0.60388   1.000
    C121    C    0.29979   0.08573   0.67848   1.000
    C122    C    0.27743   0.99270   0.71079   1.000
    C123    C    0.29465   0.90336   0.53896   1.000
    C124    C    0.42213   0.23589   0.39156   1.000
    C125    C    0.46242   0.40466   0.39248   1.000
    C126    C    0.43533   0.37411   0.45650   1.000
    C127    C    0.39893   0.12712   0.36806   1.000
    C128    C    0.79434   0.45983   0.39593   1.000
    C129    C    0.80075   0.58527   0.32119   1.000
    C130    C    0.77834   0.49209   0.28896   1.000
    C131    C    0.79485   0.40357   0.46092   1.000
    C132    C    0.92163   0.73593   0.60846   1.000
    C133    C    0.96224   0.90465   0.60771   1.000
    C134    C    0.93551   0.87409   0.54361   1.000
    C135    C    0.89804   0.62722   0.63187   1.000
    C136    C    0.20608   0.45993   0.10374   1.000
    C137    C    0.20039   0.58557   0.17844   1.000
    C138    C    0.22278   0.49254   0.21068   1.000
    C139    C    0.20510   0.40347   0.03878   1.000
    C140    C    0.07775   0.73598   0.89163   1.000
    C141    C    0.03754   0.90459   0.89273   1.000
    C142    C    0.06452   0.87393   0.95674   1.000
    C143    C    0.10096   0.62738   0.86799   1.000
    C144    C    0.29424   0.04027   0.10380   1.000
    C145    C    0.30123   0.91497   0.17861   1.000
    C146    C    0.27860   0.00803   0.21079   1.000
    C147    C    0.29453   0.09649   0.03879   1.000
    C148    C    0.42156   0.76423   0.89153   1.000
    C149    C    0.46195   0.59564   0.89248   1.000
    C150    C    0.43534   0.62629   0.95653   1.000
    C151    C    0.39805   0.87280   0.86799   1.000
    C152    C    0.70582   0.04002   0.39613   1.000
    C153    C    0.70004   0.91419   0.32154   1.000
    C154    C    0.72242   0.00722   0.28923   1.000
    C155    C    0.70488   0.09664   0.46103   1.000
    C156    C    0.57769   0.76407   0.60846   1.000
    C157    C    0.53743   0.59530   0.60757   1.000
    C158    C    0.56449   0.62583   0.54354   1.000
    C159    C    0.60094   0.87284   0.63195   1.000
    N160    N    0.22473   0.58685   0.66380   1.000
    N161    N    0.18879   0.43521   0.61116   1.000
    N162    N    0.08929   0.23248   0.45566   1.000
    N163    N    0.04661   0.18270   0.35143   1.000
    N164    N    0.77393   0.58665   0.83648   1.000
    N165    N    0.81012   0.43527   0.88908   1.000
    N166    N    0.91075   0.23273   0.04408   1.000
    N167    N    0.95402   0.18285   0.14816   1.000
    N168    N    0.72495   0.91313   0.83650   1.000
    N169    N    0.68869   0.06459   0.88906   1.000
    N170    N    0.58919   0.26726   0.04428   1.000
    N171    N    0.54667   0.31717   0.14844   1.000
    N172    N    0.27429   0.91347   0.66363   1.000
    N173    N    0.31017   0.06490   0.61089   1.000
    N174    N    0.41073   0.26744   0.45573   1.000
    N175    N    0.45402   0.31717   0.35163   1.000
    N176    N    0.77486   0.41310   0.33620   1.000
    N177    N    0.81082   0.56475   0.38883   1.000
    N178    N    0.91063   0.76746   0.54428   1.000
    N179    N    0.95335   0.81722   0.64851   1.000
    N180    N    0.22583   0.41342   0.16346   1.000
    N181    N    0.18984   0.56482   0.11083   1.000
    N182    N    0.08910   0.76735   0.95585   1.000
    N183    N    0.04596   0.81728   0.85176   1.000
    N184    N    0.27478   0.08694   0.16350   1.000
    N185    N    0.31111   0.93548   0.11096   1.000
    N186    N    0.41064   0.73285   0.95574   1.000
    N187    N    0.45312   0.68293   0.85157   1.000
    N188    N    0.72546   0.08647   0.33638   1.000
    N189    N    0.68957   0.93506   0.38913   1.000
    N190    N    0.58908   0.73250   0.54429   1.000
    N191    N    0.54585   0.68280   0.64840   1.000
loop_
    _geom_bond_atom_site_label_1
    _geom_bond_atom_site_label_2
    _geom_bond_distance
    _geom_bond_site_symmetry_2
    _ccdc_geom_bond_type
    H80    C147      1.07418      .   S
    H70    C139      1.07473      .   S
    H29    C107      1.09807  1_554   S
    H40    C115      1.09806  1_554   S
    H82    C150      1.08354  1_554   S
    H72    C142      1.08353  1_554   S
    H69    C139      1.10081      .   S
    H79    C147      1.10073      .   S
    Ag8    Ag9       3.04337      .   S
    Ag8    N181      2.09745      .   S
    Ag8    N182      2.10075  1_554   S
    Ag9    N185      2.09737      .   S
    Ag9    N186      2.10066  1_554   S
    C139   H68       1.09952      .   S
    C139   C136      1.48898      .   S
    H78    C147      1.09959      .   S
    C147   C144      1.48899      .   S
    C110   N166      1.38687      .   S
    C110   C109      1.37507      .   S
    C110   H31       1.08352  1_554   S
    C118   N170      1.38692      .   S
    C118   C117      1.37505      .   S
    C118   H42       1.08352  1_554   S
    N166   C108      1.35472      .   S
    N166   Ag0       2.10075  1_554   S
    N170   C116      1.35475      .   S
    N170   Ag1       2.10077  1_554   S
    H34    C111      1.09890      .   S
    H44    C119      1.09893      .   S
    C136   N181      1.35781      .   S
    C136   N180      1.35487      .   S
    C144   N185      1.35775  1_545   S
    C144   N184      1.35482      .   S
    C109   H30       1.08513      .   S
    C109   N167      1.38726      .   S
    C117   H41       1.08415      .   S
    C117   N171      1.38729      .   S
    C108   C111      1.48669      .   S
    C108   N167      1.35620      .   S
    C116   C119      1.48671      .   S
    C116   N171      1.35621      .   S
    N181   C137      1.38684      .   S
    N185   C145      1.38687      .   S
    H45    C119      1.10116      .   S
    H35    C111      1.10117      .   S
    C111   H33       1.09685      .   S
    C119   H43       1.09685      .   S
    N167   Ag5       2.10226  1_655   S
    N171   Ag6       2.10234      .   S
    N180   Ag12      2.11279      .   S
    N180   C138      1.38453      .   S
    N184   Ag12      2.11277      .   S
    N184   C146      1.38452      .   S
    Ag12   Ag5       3.22399      .   S
    Ag12   Ag6       3.22447      .   S
    C137   H66       1.08375      .   S
    C137   C138      1.37455      .   S
    C145   H76       1.08376      .   S
    C145   C146      1.37441  1_565   S
    C138   H67       1.08295      .   S
    C146   H77       1.08285      .   S
    H57    C130      1.08291      .   S
    H87    C154      1.08295      .   S
    Ag5    Ag11      3.22936  1_455   S
    Ag5    N163      2.10220      .   S
    Ag6    Ag11      3.22261      .   S
    Ag6    N175      2.10236      .   S
    C130   C129      1.37452      .   S
    C130   N176      1.38454      .   S
    C154   C153      1.37444  1_545   S
    C154   N188      1.38454      .   S
    H56    C129      1.08376      .   S
    H86    C153      1.08376      .   S
    H22    C103      1.09683      .   S
    H53    C127      1.09684      .   S
    C129   N177      1.38687      .   S
    C153   N189      1.38683      .   S
    Ag11   N176      2.11298      .   S
    Ag11   N188      2.11296      .   S
    N176   C128      1.35483      .   S
    N188   C152      1.35489      .   S
    N163   C100      1.35625      .   S
    N163   C101      1.38729      .   S
    N175   C124      1.35623      .   S
    N175   C125      1.38724      .   S
    H55    C127      1.10118      .   S
    C103   H24       1.10119      .   S
    C103   C100      1.48676      .   S
    C103   H23       1.09892      .   S
    C127   C124      1.48665      .   S
    C127   H54       1.09886      .   S
    H20    C101      1.08298      .   S
    H51    C125      1.08419      .   S
    N177   C128      1.35785      .   S
    N177   Ag7       2.09763      .   S
    N189   C152      1.35770  1_565   S
    N189   Ag10      2.09762      .   S
    C100   N162      1.35474      .   S
    C124   N174      1.35468      .   S
    C101   C102      1.37503      .   S
    C125   C126      1.37511      .   S
    C128   C131      1.48896      .   S
    C152   C155      1.48896      .   S
    N162   C102      1.38694      .   S
    N162   Ag32      2.10112      .   S
    N174   C126      1.38690      .   S
    N174   Ag2       2.10124      .   S
    C102   H21       1.08393      .   S
    C126   H52       1.08393      .   S
    H88    C155      1.09949      .   S
    H58    C131      1.09954      .   S
    C131   H59       1.10081      .   S
    C131   H60       1.09807      .   S
    C155   H89       1.10084      .   S
    C155   H90       1.09808      .   S
    Ag7    Ag10      3.04483      .   S
    Ag7    N178      2.10118      .   S
    Ag10   N190      2.10124      .   S
    H92    C158      1.08393      .   S
    H62    C134      1.08394      .   S
    H50    C123      1.09808      .   S
    H19    C99       1.09806      .   S
    H49    C123      1.10081      .   S
    H18    C99       1.10082      .   S
    Ag2    Ag32      3.04489      .   S
    Ag2    N173      2.09764      .   S
    Ag32   N161      2.09757      .   S
    C123   H48       1.09950      .   S
    C123   C120      1.48896      .   S
    C99    H17       1.09952      .   S
    C99    C96       1.48899      .   S
    C158   N190      1.38686      .   S
    C158   C157      1.37511      .   S
    C134   N178      1.38695      .   S
    C134   C133      1.37501      .   S
    N178   C132      1.35475      .   S
    N190   C156      1.35470      .   S
    H94    C159      1.09889      .   S
    H64    C135      1.09894      .   S
    C120   N173      1.35772  1_565   S
    C120   N172      1.35488      .   S
    C96    N161      1.35786      .   S
    C96    N160      1.35484      .   S
    C157   H91       1.08420      .   S
    C157   N191      1.38723      .   S
    C133   H61       1.08526      .   S
    C133   N179      1.38730      .   S
    C156   C159      1.48667      .   S
    C156   N191      1.35622      .   S
    C132   C135      1.48676      .   S
    C132   N179      1.35624      .   S
    N173   C121      1.38684      .   S
    N161   C97       1.38687      .   S
    H65    C135      1.10118      .   S
    C135   H63       1.09683      .   S
    C159   H95       1.10118      .   S
    C159   H93       1.09684      .   S
    N191   Ag14      2.10231      .   S
    N179   Ag13      2.10205      .   S
    N172   Ag3       2.11303      .   S
    N172   C122      1.38455      .   S
    N160   Ag3       2.11305      .   S
    N160   C98       1.38453      .   S
    Ag3    Ag14      3.22335      .   S
    Ag3    Ag13      3.22634  1_455   S
    C121   H46       1.08378      .   S
    C121   C122      1.37444  1_545   S
    C97    H15       1.08375      .   S
    C97    C98       1.37454      .   S
    C122   H47       1.08292      .   S
    C98    H16       1.08289      .   S
    H37    C114      1.08285      .   S
    H26    C106      1.08294      .   S
    Ag14   Ag4       3.22358      .   S
    Ag14   N187      2.10229      .   S
    Ag13   Ag4       3.22654      .   S
    Ag13   N183      2.10212  1_655   S
    C114   C113      1.37441  1_565   S
    C114   N168      1.38451      .   S
    C106   C105      1.37456      .   S
    C106   N164      1.38453      .   S
    H36    C113      1.08376      .   S
    H25    C105      1.08376      .   S
    H83    C151      1.09685      .   S
    H73    C143      1.09684      .   S
    C113   N169      1.38688      .   S
    C105   N165      1.38683      .   S
    Ag4    N164      2.11279      .   S
    Ag4    N168      2.11273      .   S
    N164   C104      1.35489      .   S
    N168   C112      1.35485      .   S
    N187   C148      1.35620      .   S
    N187   C149      1.38730      .   S
    N183   C140      1.35620      .   S
    N183   C141      1.38725      .   S
    H75    C143      1.10115      .   S
    C151   H85       1.10115      .   S
    C151   C148      1.48669      .   S
    C151   H84       1.09893      .   S
    C143   C140      1.48667      .   S
    C143   H74       1.09891      .   S
    H81    C149      1.08416      .   S
    H71    C141      1.08290      .   S
    N169   C112      1.35774  1_545   S
    N169   Ag1       2.09751      .   S
    N165   C104      1.35780      .   S
    N165   Ag0       2.09746      .   S
    C148   N186      1.35473      .   S
    C140   N182      1.35470      .   S
    C149   C150      1.37503      .   S
    C141   C142      1.37506      .   S
    C104   C107      1.48898      .   S
    C112   C115      1.48899      .   S
    N186   C150      1.38693      .   S
    N182   C142      1.38689      .   S
    H27    C107      1.09954      .   S
    C107   H28       1.10080      .   S
    H38    C115      1.09957      .   S
    C115   H39       1.10078      .   S
    Ag0    Ag1       3.04372      .   S
