# CIF file generated by openbabel 2.4.90, see http://openbabel.sf.net
data_I
_chemical_name_common ''
_cell_length_a 10.9615
_cell_length_b 12.758
_cell_length_c 20.066
_cell_angle_alpha 90.035
_cell_angle_beta 90.047
_cell_angle_gamma 90.126
_space_group_name_H-M_alt 'P 1'
_space_group_name_Hall 'P 1'
loop_
    _symmetry_equiv_pos_as_xyz
    x,y,z
loop_
    _atom_site_label
    _atom_site_type_symbol
    _atom_site_fract_x
    _atom_site_fract_y
    _atom_site_fract_z
    _atom_site_occupancy
    Zr0     Zr   0.14545   0.32861   0.53507   1.000
    Zr1     Zr   0.85401   0.32885   0.96500   1.000
    Zr2     Zr   0.64528   0.17112   0.96504   1.000
    Zr3     Zr   0.35398   0.17133   0.53490   1.000
    Zr4     Zr   0.24953   0.75019   0.67512   1.000
    Zr5     Zr   0.74947   0.74989   0.82512   1.000
    Zr6     Zr   0.00038   0.18793   0.24979   1.000
    Zr7     Zr   0.50040   0.31194   0.25005   1.000
    Zr8     Zr   0.85433   0.67135   0.46489   1.000
    Zr9     Zr   0.14587   0.67122   0.03492   1.000
    Zr10    Zr   0.35454   0.82898   0.03498   1.000
    Zr11    Zr   0.64579   0.82861   0.46511   1.000
    Zr12    Zr   0.75018   0.24975   0.32488   1.000
    Zr13    Zr   0.25027   0.25019   0.17485   1.000
    Zr14    Zr   0.99961   0.81210   0.75014   1.000
    Zr15    Zr   0.49940   0.68810   0.74998   1.000
    O16     O    0.25021   0.75010   0.03495   1.000
    O17     O    0.12533   0.21906   0.21232   1.000
    O18     O    0.37534   0.28107   0.21245   1.000
    O19     O    0.87528   0.21884   0.28734   1.000
    O20     O    0.62529   0.28085   0.28746   1.000
    O21     O    0.75006   0.74998   0.46500   1.000
    O22     O    0.24971   0.24997   0.53499   1.000
    O23     O    0.37447   0.71914   0.71255   1.000
    O24     O    0.12457   0.78114   0.71263   1.000
    O25     O    0.62444   0.71899   0.78755   1.000
    O26     O    0.87454   0.78099   0.78763   1.000
    O27     O    0.74964   0.24999   0.96502   1.000
    N28     N    0.20837   0.47521   0.12125   1.000
    O29     O    0.18811   0.54662   0.09706   1.000
    O30     O    0.22321   0.40351   0.14520   1.000
    N31     N    0.70750   0.97501   0.87883   1.000
    O32     O    0.68724   0.04643   0.90294   1.000
    O33     O    0.72235   0.90326   0.85482   1.000
    N34     N    0.92579   0.23441   0.10194   1.000
    O35     O    0.90408   0.25760   0.05324   1.000
    O36     O    0.95149   0.20990   0.15046   1.000
    N37     N    0.29224   0.02505   0.12133   1.000
    O38     O    0.31253   0.95364   0.09715   1.000
    O39     O    0.27738   0.09681   0.14525   1.000
    N40     N    0.07418   0.76569   0.89799   1.000
    O41     O    0.04848   0.79019   0.84947   1.000
    O42     O    0.09584   0.74249   0.94669   1.000
    N43     N    0.79220   0.47506   0.37856   1.000
    O44     O    0.81239   0.54655   0.40271   1.000
    O45     O    0.77736   0.40324   0.35455   1.000
    N46     N    0.70808   0.02471   0.37878   1.000
    O47     O    0.72295   0.09641   0.35470   1.000
    O48     O    0.68788   0.95327   0.40295   1.000
    N49     N    0.79148   0.52485   0.87883   1.000
    O50     O    0.81177   0.45346   0.90293   1.000
    O51     O    0.77659   0.59656   0.85481   1.000
    N52     N    0.57465   0.26560   0.10216   1.000
    O53     O    0.54909   0.29008   0.15070   1.000
    O54     O    0.59594   0.24240   0.05341   1.000
    N55     N    0.92530   0.76569   0.60215   1.000
    O56     O    0.90389   0.74255   0.55337   1.000
    O57     O    0.95089   0.79018   0.65074   1.000
    N58     N    0.20743   0.52489   0.62144   1.000
    O59     O    0.18728   0.45340   0.59728   1.000
    O60     O    0.22228   0.59670   0.64545   1.000
    N61     N    0.07468   0.23425   0.39778   1.000
    O62     O    0.09602   0.25740   0.44657   1.000
    O63     O    0.04909   0.20978   0.34920   1.000
    N64     N    0.57412   0.73431   0.60213   1.000
    O65     O    0.54837   0.70988   0.65066   1.000
    O66     O    0.59578   0.75743   0.55342   1.000
    N67     N    0.42573   0.26565   0.39790   1.000
    O68     O    0.40404   0.24252   0.44661   1.000
    O69     O    0.45147   0.29010   0.34937   1.000
    N70     N    0.42519   0.73451   0.89786   1.000
    O71     O    0.45073   0.71001   0.84932   1.000
    O72     O    0.40389   0.75771   0.94661   1.000
    N73     N    0.29162   0.97525   0.62123   1.000
    O74     O    0.27677   0.90354   0.64530   1.000
    O75     O    0.31185   0.04668   0.59706   1.000
loop_
    _geom_bond_atom_site_label_1
    _geom_bond_atom_site_label_2
    _geom_bond_distance
    _geom_bond_site_symmetry_2
    _ccdc_geom_bond_type
    Zr9    O16       1.52169      .   S
    Zr10   O16       1.52169      .   S
    Zr13   O17       1.61199      .   S
    Zr6    O17       1.61199      .   S
    Zr13   O18       1.61224      .   S
    Zr7    O18       1.61224      .   S
    Zr6    O19       1.61468  1_455   S
    Zr12   O19       1.61468      .   S
    Zr7    O20       1.61130      .   S
    Zr12   O20       1.61130      .   S
    Zr8    O21       1.52241      .   S
    Zr11   O21       1.52241      .   S
    Zr3    O22       1.52245      .   S
    Zr0    O22       1.52245      .   S
    Zr4    O23       1.61167      .   S
    Zr15   O23       1.61167      .   S
    Zr4    O24       1.61317      .   S
    Zr14   O24       1.61317  1_655   S
    Zr15   O25       1.61179      .   S
    Zr5    O25       1.61179      .   S
    Zr14   O26       1.61327      .   S
    Zr5    O26       1.61327      .   S
    Zr1    O27       1.52186      .   S
    Zr2    O27       1.52186      .   S
    N28    O29       1.05639      .   S
    Zr9    O29       2.07389      .   S
    N28    O30       1.04662      .   S
    Zr13   O30       2.06684      .   S
    N31    O32       1.05560  1_565   S
    Zr2    O32       2.07287      .   S
    N31    O33       1.04725      .   S
    Zr5    O33       2.06723      .   S
    N34    O35       1.04845      .   S
    Zr1    O35       2.06525  1_556   S
    N34    O36       1.06087      .   S
    Zr6    O36       2.08294  1_455   S
    N37    O38       1.05620  1_545   S
    Zr10   O38       2.07360      .   S
    N37    O39       1.04654      .   S
    Zr13   O39       2.06678      .   S
    N40    O41       1.06073      .   S
    Zr14   O41       2.08264  1_655   S
    N40    O42       1.04842      .   S
    Zr9    O42       2.06519  1_554   S
    N43    O44       1.05551      .   S
    Zr8    O44       2.07277      .   S
    N43    O45       1.04726      .   S
    Zr12   O45       2.06730      .   S
    N46    O47       1.04725      .   S
    Zr12   O47       2.06729      .   S
    N46    O48       1.05580  1_545   S
    Zr11   O48       2.07322      .   S
    N49    O50       1.05568      .   S
    Zr1    O50       2.07298      .   S
    N49    O51       1.04728      .   S
    Zr5    O51       2.06723      .   S
    N52    O53       1.06080      .   S
    Zr7    O53       2.08285      .   S
    N52    O54       1.04847      .   S
    Zr2    O54       2.06527  1_556   S
    N55    O56       1.04852      .   S
    Zr8    O56       2.06556      .   S
    N55    O57       1.06092      .   S
    Zr14   O57       2.08295      .   S
    N58    O59       1.05554      .   S
    Zr0    O59       2.07278      .   S
    N58    O60       1.04723      .   S
    Zr4    O60       2.06728      .   S
    N61    O62       1.04855      .   S
    Zr0    O62       2.06556      .   S
    N61    O63       1.06083      .   S
    Zr6    O63       2.08284      .   S
    N64    O65       1.06090      .   S
    Zr15   O65       2.08297      .   S
    N64    O66       1.04846      .   S
    Zr11   O66       2.06549      .   S
    N67    O68       1.04848      .   S
    Zr3    O68       2.06554      .   S
    N67    O69       1.06096      .   S
    Zr7    O69       2.08308      .   S
    N70    O71       1.06083      .   S
    Zr15   O71       2.08287      .   S
    N70    O72       1.04845      .   S
    Zr10   O72       2.06523  1_554   S
    N73    O74       1.04730      .   S
    Zr4    O74       2.06740      .   S
    N73    O75       1.05578  1_565   S
    Zr3    O75       2.07320      .   S
