# CIF file generated by openbabel 2.4.90, see http://openbabel.sf.net
data_I
_chemical_name_common ''
_cell_length_a 20.636
_cell_length_b 15.499
_cell_length_c 23.722
_cell_angle_alpha 89.798
_cell_angle_beta 89.984
_cell_angle_gamma 90.015
_space_group_name_H-M_alt 'P 1'
_space_group_name_Hall 'P 1'
loop_
    _symmetry_equiv_pos_as_xyz
    x,y,z
loop_
    _atom_site_label
    _atom_site_type_symbol
    _atom_site_fract_x
    _atom_site_fract_y
    _atom_site_fract_z
    _atom_site_occupancy
    Zn0     Zn   0.80519   0.30355   0.01989   1.000
    Zn1     Zn   0.20534   0.13719   0.98016   1.000
    Zn2     Zn   0.70535   0.13719   0.98016   1.000
    Zn3     Zn   0.44733   0.69600   0.51898   1.000
    Zn4     Zn   0.94734   0.69600   0.51898   1.000
    Zn5     Zn   0.04715   0.86317   0.48107   1.000
    Zn6     Zn   0.54716   0.86317   0.48107   1.000
    Zn7     Zn   0.19733   0.80400   0.48100   1.000
    Zn8     Zn   0.69734   0.80400   0.48103   1.000
    Zn9     Zn   0.29713   0.63683   0.51897   1.000
    Zn10    Zn   0.79714   0.63683   0.51890   1.000
    Zn11    Zn   0.05516   0.19645   0.98014   1.000
    Zn12    Zn   0.55518   0.19645   0.98014   1.000
    Zn13    Zn   0.45536   0.36283   0.01983   1.000
    Zn14    Zn   0.95538   0.36283   0.01980   1.000
    Zn15    Zn   0.30518   0.30355   0.01989   1.000
