# CIF file generated by openbabel 2.4.90, see http://openbabel.sf.net
data_I
_chemical_name_common ''
_cell_length_a 20.636
_cell_length_b 15.499
_cell_length_c 23.722
_cell_angle_alpha 89.798
_cell_angle_beta 89.984
_cell_angle_gamma 90.015
_space_group_name_H-M_alt 'P 1'
_space_group_name_Hall 'P 1'
loop_
    _symmetry_equiv_pos_as_xyz
    x,y,z
loop_
    _atom_site_label
    _atom_site_type_symbol
    _atom_site_fract_x
    _atom_site_fract_y
    _atom_site_fract_z
    _atom_site_occupancy
    N0      N    0.89852   0.85580   0.38476   1.000
    N1      N    0.35367   0.14488   0.88543   1.000
    N2      N    0.87974   0.48623   0.27338   1.000
    N3      N    0.62974   0.01375   0.72663   1.000
    N4      N    0.37202   0.51221   0.77313   1.000
    N5      N    0.87189   0.51220   0.77314   1.000
    N6      N    0.14848   0.64421   0.61526   1.000
    N7      N    0.64849   0.64421   0.61526   1.000
    N8      N    0.39851   0.85580   0.38475   1.000
    N9      N    0.12203   0.98778   0.22689   1.000
    N10     N    0.37973   0.48623   0.27338   1.000
    N11     N    0.85368   0.14488   0.88543   1.000
    N12     N    0.12973   0.01375   0.72664   1.000
    N13     N    0.62204   0.98778   0.22689   1.000
    N14     N    0.60367   0.35511   0.11457   1.000
    N15     N    0.10366   0.35511   0.11457   1.000
    Zr16    Zr   0.70535   0.13719   0.98016   1.000
    O17     O    0.75327   0.14469   0.95773   1.000
    O18     O    0.68298   0.10026   0.90784   1.000
    O19     O    0.68083   0.09243   0.05046   1.000
    O20     O    0.67335   0.20556   0.01442   1.000
    Zr21    Zr   0.30518   0.30355   0.01989   1.000
    O22     O    0.32364   0.36589   0.95006   1.000
    O23     O    0.32666   0.35482   0.09282   1.000
    O24     O    0.24316   0.32155   0.04540   1.000
    Zr25    Zr   0.95538   0.36283   0.01980   1.000
    O26     O    0.92337   0.29445   0.98556   1.000
    O27     O    0.00329   0.35533   0.04225   1.000
    O28     O    0.93300   0.39975   0.09214   1.000
    O29     O    0.93081   0.40758   0.94952   1.000
    Zr30    Zr   0.55518   0.19645   0.98014   1.000
    O31     O    0.57364   0.13411   0.04997   1.000
    O32     O    0.49315   0.17844   0.95461   1.000
    O33     O    0.57667   0.14517   0.90721   1.000
    Zr34    Zr   0.94734   0.69600   0.51898   1.000
    O35     O    0.92869   0.63342   0.44945   1.000
    O36     O    0.92545   0.64415   0.59201   1.000
    O37     O    0.00923   0.67798   0.54510   1.000
    Zr38    Zr   0.05516   0.19645   0.98014   1.000
    O39     O    0.99315   0.17844   0.95461   1.000
    O40     O    0.07665   0.14517   0.90721   1.000
    O41     O    0.07363   0.13411   0.04997   1.000
    Zr42    Zr   0.29713   0.63683   0.51897   1.000
    O43     O    0.32905   0.70545   0.48475   1.000
    O44     O    0.32145   0.59186   0.44897   1.000
    O45     O    0.31917   0.59924   0.59142   1.000
    O46     O    0.24910   0.64432   0.54199   1.000
    Zr47    Zr   0.79714   0.63683   0.51890   1.000
    O48     O    0.74911   0.64432   0.54195   1.000
    O49     O    0.82147   0.59186   0.44892   1.000
    O50     O    0.81914   0.59924   0.59138   1.000
    O51     O    0.82906   0.70545   0.48471   1.000
    Zr52    Zr   0.69734   0.80400   0.48103   1.000
    O53     O    0.67549   0.85585   0.40800   1.000
    O54     O    0.67869   0.86658   0.55055   1.000
    O55     O    0.75925   0.82202   0.45491   1.000
    Zr56    Zr   0.45536   0.36283   0.01983   1.000
    O57     O    0.43299   0.39975   0.09216   1.000
    O58     O    0.50328   0.35533   0.04226   1.000
    O59     O    0.42336   0.29445   0.98557   1.000
    O60     O    0.43083   0.40758   0.94953   1.000
    Zr61    Zr   0.04715   0.86317   0.48107   1.000
    O62     O    0.06919   0.90076   0.40861   1.000
    O63     O    0.07905   0.79455   0.51528   1.000
    O64     O    0.07146   0.90813   0.55107   1.000
    O65     O    0.99912   0.85569   0.45803   1.000
    Zr66    Zr   0.44733   0.69600   0.51898   1.000
    O67     O    0.50923   0.67799   0.54510   1.000
    O68     O    0.42868   0.63342   0.44945   1.000
    O69     O    0.42548   0.64415   0.59201   1.000
    Zr70    Zr   0.80519   0.30355   0.01989   1.000
    O71     O    0.74317   0.32155   0.04540   1.000
    O72     O    0.82668   0.35482   0.09282   1.000
    O73     O    0.82361   0.36589   0.95007   1.000
    Zr74    Zr   0.19733   0.80400   0.48100   1.000
    O75     O    0.25924   0.82202   0.45489   1.000
    O76     O    0.17868   0.86658   0.55054   1.000
    O77     O    0.17548   0.85585   0.40798   1.000
    Zr78    Zr   0.54716   0.86317   0.48107   1.000
    O79     O    0.49913   0.85569   0.45804   1.000
    O80     O    0.57906   0.79455   0.51528   1.000
    O81     O    0.56920   0.90075   0.40861   1.000
    O82     O    0.57147   0.90813   0.55107   1.000
    Zr83    Zr   0.20534   0.13719   0.98016   1.000
    O84     O    0.25326   0.14468   0.95773   1.000
    O85     O    0.18297   0.10026   0.90784   1.000
    O86     O    0.18081   0.09243   0.05046   1.000
    O87     O    0.17334   0.20556   0.01442   1.000
    O88     O    0.57258   0.24697   0.01593   1.000
    O89     O    0.92984   0.74682   0.48324   1.000
    O90     O    0.32258   0.25303   0.98409   1.000
    O91     O    0.67983   0.75319   0.51677   1.000
    O92     O    0.07257   0.24697   0.01593   1.000
    O93     O    0.82259   0.25303   0.98409   1.000
    O94     O    0.17982   0.75319   0.51675   1.000
    O95     O    0.42983   0.74682   0.48324   1.000
loop_
    _geom_bond_atom_site_label_1
    _geom_bond_atom_site_label_2
    _geom_bond_distance
    _geom_bond_site_symmetry_2
    _ccdc_geom_bond_type
    Zr16   O17       1.12870      .   S
    N11    O17       2.68933      .   S
    Zr16   O18       1.86842      .   S
    N3     O18       4.63958      .   S
    Zr16   O19       1.87346  1_556   S
    N13    O19       4.64385  1_565   S
    Zr16   O20       1.49178  1_556   S
    N14    O20       3.62263      .   S
    Zr21   O22       1.95211  1_554   S
    N4     O22       4.86688      .   S
    Zr21   O23       1.95728      .   S
    N10    O23       4.87416      .   S
    Zr21   O24       1.44335      .   S
    N15    O24       3.35462      .   S
    Zr25   O26       1.49170  1_554   S
    N11    O26       3.62263      .   S
    Zr25   O27       1.12894  1_655   S
    N15    O27       2.68994      .   S
    Zr25   O28       1.86867      .   S
    N2     O28       4.63989      .   S
    Zr25   O29       1.87358  1_554   S
    N5     O29       4.64442      .   S
    Zr30   O31       1.95240  1_556   S
    N13    O31       4.86732  1_565   S
    Zr30   O32       1.44374      .   S
    N1     O32       3.35516      .   S
    Zr30   O33       1.95730      .   S
    N3     O33       4.87419      .   S
    Zr34   O35       1.95477      .   S
    N2     O35       4.87202      .   S
    Zr34   O36       1.95974      .   S
    N5     O36       4.87846      .   S
    Zr34   O37       1.44652  1_655   S
    N6     O37       3.36129      .   S
    Zr38   O39       1.44358  1_455   S
    N11    O39       3.35491      .   S
    Zr38   O40       1.95729      .   S
    N12    O40       4.87414      .   S
    Zr38   O41       1.95241  1_556   S
    N9     O41       4.86734  1_565   S
    Zr42   O43       1.48899      .   S
    N8     O43       3.61528      .   S
    Zr42   O44       1.87167      .   S
    N10    O44       4.63924      .   S
    Zr42   O45       1.86910      .   S
    N4     O45       4.64234      .   S
    Zr42   O46       1.13764      .   S
    N6     O46       2.70747      .   S
    Zr47   O48       1.13796      .   S
    N7     O48       2.70820      .   S
    Zr47   O49       1.87112      .   S
    N2     O49       4.63827      .   S
    Zr47   O50       1.86955      .   S
    N5     O50       4.64295      .   S
    Zr47   O51       1.48861      .   S
    N0     O51       3.61445      .   S
    Zr52   O53       1.95999      .   S
    N13    O53       4.87831      .   S
    Zr52   O54       1.95441      .   S
    N3     O54       4.87203  1_545   S
    Zr52   O55       1.44636      .   S
    N0     O55       3.36067      .   S
    Zr56   O57       1.86842      .   S
    N10    O57       4.63944      .   S
    Zr56   O58       1.12897      .   S
    N14    O58       2.68986      .   S
    Zr56   O59       1.49184  1_554   S
    N1     O59       3.62292      .   S
    Zr56   O60       1.87367  1_554   S
    N4     O60       4.64441      .   S
    Zr61   O62       1.86892      .   S
    N9     O62       4.64198      .   S
    Zr61   O63       1.48914      .   S
    N6     O63       3.61559      .   S
    Zr61   O64       1.87167      .   S
    N12    O64       4.63904  1_545   S
    Zr61   O65       1.13790  1_455   S
    N0     O65       2.70803      .   S
    Zr66   O67       1.44669      .   S
    N7     O67       3.36157      .   S
    Zr66   O68       1.95468      .   S
    N10    O68       4.87214      .   S
    Zr66   O69       1.95952      .   S
    N4     O69       4.87780      .   S
    Zr70   O71       1.44336      .   S
    N14    O71       3.35462      .   S
    Zr70   O72       1.95729      .   S
    N2     O72       4.87417      .   S
    Zr70   O73       1.95189  1_554   S
    N5     O73       4.86628      .   S
    Zr74   O75       1.44630      .   S
    N8     O75       3.36052      .   S
    Zr74   O76       1.95480      .   S
    N12    O76       4.87230  1_545   S
    Zr74   O77       1.95975      .   S
    N9     O77       4.87788      .   S
    Zr78   O79       1.13801      .   S
    N8     O79       2.70854      .   S
    Zr78   O80       1.48915      .   S
    N7     O80       3.61563      .   S
    Zr78   O81       1.86894      .   S
    N13    O81       4.64202      .   S
    Zr78   O82       1.87165      .   S
    N3     O82       4.63899  1_545   S
    Zr83   O84       1.12870      .   S
    N1     O84       2.68933      .   S
    Zr83   O85       1.86840      .   S
    N12    O85       4.63952      .   S
    Zr83   O86       1.87347  1_556   S
    N9     O86       4.64388  1_565   S
    Zr83   O87       1.49178  1_556   S
    N15    O87       3.62264      .   S
    N14    O88       2.95360      .   S
    Zr30   O88       1.21147  1_556   S
    Zr34   O89       1.21038      .   S
    N0     O89       2.95002      .   S
    Zr21   O90       1.21161  1_554   S
    N1     O90       2.95395      .   S
    Zr52   O91       1.21015      .   S
    N7     O91       2.94983      .   S
    Zr38   O92       1.21148  1_556   S
    N15    O92       2.95363      .   S
    Zr70   O93       1.21161  1_554   S
    N11    O93       2.95395      .   S
    Zr74   O94       1.21032      .   S
    N6     O94       2.95013      .   S
    N8     O95       2.95027      .   S
    Zr66   O95       1.21037      .   S
