# CIF file generated by openbabel 2.4.90, see http://openbabel.sf.net
data_I
_chemical_name_common ''
_cell_length_a 20.636
_cell_length_b 15.499
_cell_length_c 23.722
_cell_angle_alpha 89.798
_cell_angle_beta 89.984
_cell_angle_gamma 90.015
_space_group_name_H-M_alt 'P 1'
_space_group_name_Hall 'P 1'
loop_
    _symmetry_equiv_pos_as_xyz
    x,y,z
loop_
    _atom_site_label
    _atom_site_type_symbol
    _atom_site_fract_x
    _atom_site_fract_y
    _atom_site_fract_z
    _atom_site_occupancy
    C0      C    0.30518   0.30355   0.01989   1.000
    C1      C    0.80519   0.30355   0.01989   1.000
    C2      C    0.20534   0.13719   0.98016   1.000
    C3      C    0.70535   0.13719   0.98016   1.000
    C4      C    0.44733   0.69600   0.51898   1.000
    C5      C    0.94734   0.69600   0.51898   1.000
    C6      C    0.04715   0.86317   0.48107   1.000
    C7      C    0.54716   0.86317   0.48107   1.000
    C8      C    0.19733   0.80400   0.48100   1.000
    C9      C    0.69734   0.80400   0.48103   1.000
    C10     C    0.29713   0.63683   0.51897   1.000
    C11     C    0.79714   0.63683   0.51890   1.000
    C12     C    0.05516   0.19645   0.98014   1.000
    C13     C    0.55518   0.19645   0.98014   1.000
    C14     C    0.45536   0.36283   0.01983   1.000
    C15     C    0.95538   0.36283   0.01980   1.000
    C16     C    0.01440   0.10892   0.82200   1.000
    C17     C    0.51442   0.10892   0.82200   1.000
    C18     C    0.99863   0.05647   0.72412   1.000
    C19     C    0.49865   0.05647   0.72412   1.000
    C20     C    0.21575   0.03780   0.81630   1.000
    C21     C    0.71576   0.03780   0.81630   1.000
    C22     C    0.04409   0.98903   0.63736   1.000
    C23     C    0.54410   0.98904   0.63736   1.000
    C24     C    0.24573   0.92147   0.63021   1.000
    C25     C    0.74575   0.92147   0.63020   1.000
    C26     C    0.26155   0.97353   0.72867   1.000
    C27     C    0.76156   0.97353   0.72867   1.000
    C28     C    0.35046   0.07355   0.98120   1.000
    C29     C    0.85047   0.07355   0.98120   1.000
    C30     C    0.29354   0.25911   0.89249   1.000
    C31     C    0.79355   0.25911   0.89249   1.000
    C32     C    0.29140   0.25559   0.78807   1.000
    C33     C    0.79141   0.25559   0.78807   1.000
    C34     C    0.33840   0.13040   0.73666   1.000
    C35     C    0.83841   0.13041   0.73666   1.000
    C36     C    0.38844   0.00914   0.79096   1.000
    C37     C    0.88845   0.00914   0.79096   1.000
    C38     C    0.39137   0.01389   0.89541   1.000
    C39     C    0.89138   0.01389   0.89541   1.000
    C40     C    0.23693   0.89379   0.32365   1.000
    C41     C    0.73694   0.89379   0.32365   1.000
    C42     C    0.25314   0.94528   0.22517   1.000
    C43     C    0.75315   0.94528   0.22517   1.000
    C44     C    0.03556   0.96456   0.31652   1.000
    C45     C    0.53557   0.96456   0.31652   1.000
    C46     C    0.20813   0.01186   0.13772   1.000
    C47     C    0.70814   0.01186   0.13772   1.000
    C48     C    0.00640   0.07870   0.12920   1.000
    C49     C    0.50641   0.07870   0.12921   1.000
    C50     C    0.49012   0.02767   0.22804   1.000
    C51     C    0.99013   0.02767   0.22804   1.000
    C52     C    0.40195   0.92649   0.48054   1.000
    C53     C    0.90196   0.92649   0.48054   1.000
    C54     C    0.45916   0.74197   0.39205   1.000
    C55     C    0.95917   0.74196   0.39205   1.000
    C56     C    0.46098   0.74604   0.28760   1.000
    C57     C    0.96100   0.74603   0.28761   1.000
    C58     C    0.41337   0.87118   0.23603   1.000
    C59     C    0.91338   0.87118   0.23603   1.000
    C60     C    0.36304   0.99185   0.29018   1.000
    C61     C    0.86305   0.99185   0.29018   1.000
    C62     C    0.36047   0.98653   0.39466   1.000
    C63     C    0.86049   0.98653   0.39466   1.000
    C64     C    0.48692   0.60620   0.67630   1.000
    C65     C    0.98694   0.60619   0.67630   1.000
    C66     C    0.50314   0.55474   0.77477   1.000
    C67     C    0.00000   0.55473   0.77477   1.000
    C68     C    0.28554   0.53537   0.68356   1.000
    C69     C    0.78555   0.53538   0.68356   1.000
    C70     C    0.45813   0.48818   0.86226   1.000
    C71     C    0.95814   0.48818   0.86226   1.000
    C72     C    0.25639   0.42128   0.87090   1.000
    C73     C    0.75640   0.42129   0.87091   1.000
    C74     C    0.24009   0.47226   0.77207   1.000
    C75     C    0.74010   0.47226   0.77207   1.000
    C76     C    0.15188   0.57352   0.51951   1.000
    C77     C    0.65189   0.57352   0.51951   1.000
    C78     C    0.20911   0.75809   0.60797   1.000
    C79     C    0.70912   0.75809   0.60797   1.000
    C80     C    0.21096   0.75401   0.71241   1.000
    C81     C    0.71097   0.75401   0.71241   1.000
    C82     C    0.16337   0.62881   0.76400   1.000
    C83     C    0.66338   0.62881   0.76400   1.000
    C84     C    0.11303   0.50811   0.70980   1.000
    C85     C    0.61304   0.50811   0.70988   1.000
    C86     C    0.11044   0.51345   0.60540   1.000
    C87     C    0.61045   0.51345   0.60540   1.000
    C88     C    0.26439   0.39106   0.17787   1.000
    C89     C    0.76441   0.39106   0.17787   1.000
    C90     C    0.24862   0.44350   0.27595   1.000
    C91     C    0.74863   0.44351   0.27595   1.000
    C92     C    0.46576   0.46220   0.18371   1.000
    C93     C    0.96578   0.46219   0.18371   1.000
    C94     C    0.29408   0.51092   0.36271   1.000
    C95     C    0.79409   0.51092   0.36271   1.000
    C96     C    0.49575   0.57852   0.36978   1.000
    C97     C    0.99576   0.57851   0.36979   1.000
    C98     C    0.01155   0.52646   0.27133   1.000
    C99     C    0.51156   0.52647   0.27132   1.000
    C100    C    0.10051   0.42645   0.01881   1.000
    C101    C    0.60053   0.42645   0.01881   1.000
    C102    C    0.04351   0.24087   0.10753   1.000
    C103    C    0.54352   0.24087   0.10753   1.000
    C104    C    0.04138   0.24435   0.21195   1.000
    C105    C    0.54139   0.24436   0.21195   1.000
    C106    C    0.08840   0.36955   0.26335   1.000
    C107    C    0.58841   0.36955   0.26335   1.000
    C108    C    0.13844   0.49086   0.20904   1.000
    C109    C    0.63845   0.49087   0.20904   1.000
    C110    C    0.14136   0.48614   0.10459   1.000
    C111    C    0.64137   0.48614   0.10459   1.000
    C112    C    0.12439   0.10780   0.88348   1.000
    C113    C    0.62440   0.10780   0.88348   1.000
    C114    C    0.11631   0.07555   0.82467   1.000
    C115    C    0.61632   0.07555   0.82467   1.000
    C116    C    0.05452   0.08147   0.79844   1.000
    C117    C    0.55453   0.08147   0.79844   1.000
    C118    C    0.04608   0.05240   0.74420   1.000
    C119    C    0.54610   0.05240   0.74420   1.000
    C120    C    0.09875   0.01698   0.71340   1.000
    C121    C    0.59877   0.01698   0.71340   1.000
    C122    C    0.16138   0.01172   0.73973   1.000
    C123    C    0.66139   0.01172   0.73973   1.000
    C124    C    0.16858   0.04121   0.79576   1.000
    C125    C    0.66859   0.04121   0.79576   1.000
    C126    C    0.09141   0.98642   0.65768   1.000
    C127    C    0.59142   0.98642   0.65768   1.000
    C128    C    0.14348   0.95234   0.62839   1.000
    C129    C    0.64349   0.95234   0.62839   1.000
    C130    C    0.20554   0.94812   0.65426   1.000
    C131    C    0.70555   0.94812   0.65426   1.000
    C132    C    0.21408   0.97692   0.70855   1.000
    C133    C    0.71409   0.97692   0.70855   1.000
    C134    C    0.13395   0.91735   0.57040   1.000
    C135    C    0.63396   0.91735   0.57040   1.000
    C136    C    0.40931   0.18554   0.98263   1.000
    C137    C    0.90932   0.18554   0.98263   1.000
    C138    C    0.34604   0.14030   0.96497   1.000
    C139    C    0.84605   0.14030   0.96497   1.000
    C140    C    0.34256   0.13678   0.90080   1.000
    C141    C    0.84257   0.13678   0.90080   1.000
    C142    C    0.31443   0.20446   0.87020   1.000
    C143    C    0.81445   0.20446   0.87020   1.000
    C144    C    0.31308   0.20217   0.81139   1.000
    C145    C    0.81309   0.20217   0.81139   1.000
    C146    C    0.33974   0.13216   0.78261   1.000
    C147    C    0.83975   0.13216   0.78260   1.000
    C148    C    0.36762   0.06424   0.81299   1.000
    C149    C    0.86763   0.06425   0.81299   1.000
    C150    C    0.36907   0.06663   0.87182   1.000
    C151    C    0.86909   0.06663   0.87182   1.000
    C152    C    0.12686   0.89526   0.38460   1.000
    C153    C    0.62687   0.89526   0.38460   1.000
    C154    C    0.13503   0.92719   0.32556   1.000
    C155    C    0.63505   0.92718   0.32550   1.000
    C156    C    0.19693   0.92104   0.29950   1.000
    C157    C    0.69694   0.92104   0.29950   1.000
    C158    C    0.20560   0.94955   0.24513   1.000
    C159    C    0.70561   0.94954   0.24513   1.000
    C160    C    0.15305   0.98456   0.21379   1.000
    C161    C    0.65306   0.98456   0.21379   1.000
    C162    C    0.09028   0.98994   0.23988   1.000
    C163    C    0.59030   0.98994   0.23988   1.000
    C164    C    0.08284   0.96108   0.29618   1.000
    C165    C    0.58286   0.96107   0.29618   1.000
    C166    C    0.16068   0.01454   0.15782   1.000
    C167    C    0.66069   0.01454   0.15782   1.000
    C168    C    0.10872   0.04814   0.12801   1.000
    C169    C    0.60874   0.04814   0.12801   1.000
    C170    C    0.04651   0.05243   0.15364   1.000
    C171    C    0.54653   0.05243   0.15364   1.000
    C172    C    0.03771   0.02422   0.20816   1.000
    C173    C    0.53772   0.02422   0.20816   1.000
    C174    C    0.11842   0.08263   0.06973   1.000
    C175    C    0.61843   0.08263   0.06973   1.000
    C176    C    0.34301   0.81447   0.48187   1.000
    C177    C    0.84302   0.81447   0.48187   1.000
    C178    C    0.40631   0.85992   0.46400   1.000
    C179    C    0.90633   0.85992   0.46430   1.000
    C180    C    0.40975   0.86395   0.40015   1.000
    C181    C    0.90977   0.86395   0.40015   1.000
    C182    C    0.43803   0.79660   0.36967   1.000
    C183    C    0.93805   0.79659   0.36967   1.000
    C184    C    0.43918   0.79919   0.31085   1.000
    C185    C    0.93920   0.79919   0.31086   1.000
    C186    C    0.41218   0.86919   0.28198   1.000
    C187    C    0.91220   0.86918   0.28198   1.000
    C188    C    0.38414   0.93676   0.31227   1.000
    C189    C    0.88415   0.93676   0.31220   1.000
    C190    C    0.38289   0.93409   0.37111   1.000
    C191    C    0.88291   0.93408   0.37111   1.000
    C192    C    0.37683   0.60474   0.61542   1.000
    C193    C    0.87684   0.60474   0.61543   1.000
    C194    C    0.38502   0.57278   0.67444   1.000
    C195    C    0.88503   0.57278   0.67445   1.000
    C196    C    0.44692   0.57895   0.70040   1.000
    C197    C    0.94693   0.57894   0.70042   1.000
    C198    C    0.45559   0.55045   0.75484   1.000
    C199    C    0.95561   0.55044   0.75484   1.000
    C200    C    0.40305   0.51543   0.78621   1.000
    C201    C    0.90306   0.51542   0.78621   1.000
    C202    C    0.34027   0.51001   0.76010   1.000
    C203    C    0.84029   0.51001   0.76017   1.000
    C204    C    0.33283   0.53887   0.70380   1.000
    C205    C    0.83284   0.53887   0.70387   1.000
    C206    C    0.41068   0.48548   0.84219   1.000
    C207    C    0.91069   0.48548   0.84219   1.000
    C208    C    0.35872   0.45187   0.87203   1.000
    C209    C    0.85874   0.45187   0.87200   1.000
    C210    C    0.29651   0.44755   0.84640   1.000
    C211    C    0.79652   0.44755   0.84645   1.000
    C212    C    0.28770   0.47574   0.79192   1.000
    C213    C    0.78771   0.47574   0.79192   1.000
    C214    C    0.36843   0.41740   0.93031   1.000
    C215    C    0.86845   0.41739   0.93031   1.000
    C216    C    0.09299   0.68553   0.51816   1.000
    C217    C    0.59300   0.68553   0.51816   1.000
    C218    C    0.15627   0.64010   0.53574   1.000
    C219    C    0.65628   0.64010   0.53574   1.000
    C220    C    0.15970   0.63607   0.59988   1.000
    C221    C    0.65971   0.63607   0.59980   1.000
    C222    C    0.18799   0.70344   0.63035   1.000
    C223    C    0.68800   0.70344   0.63036   1.000
    C224    C    0.18916   0.70083   0.68916   1.000
    C225    C    0.68917   0.70083   0.68917   1.000
    C226    C    0.16217   0.63081   0.71805   1.000
    C227    C    0.66218   0.63081   0.71806   1.000
    C228    C    0.13412   0.56322   0.68770   1.000
    C229    C    0.63413   0.56322   0.68778   1.000
    C230    C    0.13285   0.56591   0.62894   1.000
    C231    C    0.63286   0.56591   0.62890   1.000
    C232    C    0.37440   0.39221   0.11654   1.000
    C233    C    0.87441   0.39220   0.11650   1.000
    C234    C    0.36631   0.42445   0.17536   1.000
    C235    C    0.86633   0.42444   0.17536   1.000
    C236    C    0.30452   0.41852   0.20161   1.000
    C237    C    0.80453   0.41852   0.20161   1.000
    C238    C    0.29608   0.44758   0.25580   1.000
    C239    C    0.79609   0.44758   0.25580   1.000
    C240    C    0.34875   0.48300   0.28665   1.000
    C241    C    0.84876   0.48300   0.28665   1.000
    C242    C    0.41139   0.48827   0.26029   1.000
    C243    C    0.91140   0.48826   0.26030   1.000
    C244    C    0.41859   0.45879   0.20426   1.000
    C245    C    0.91860   0.45878   0.20426   1.000
    C246    C    0.34141   0.51354   0.34237   1.000
    C247    C    0.84142   0.51354   0.34237   1.000
    C248    C    0.39349   0.54763   0.37164   1.000
    C249    C    0.89350   0.54763   0.37164   1.000
    C250    C    0.45555   0.55186   0.34575   1.000
    C251    C    0.95556   0.55185   0.34575   1.000
    C252    C    0.46409   0.52307   0.29140   1.000
    C253    C    0.96410   0.52306   0.29146   1.000
    C254    C    0.38395   0.58262   0.42960   1.000
    C255    C    0.88397   0.58263   0.42964   1.000
    C256    C    0.15931   0.31446   0.01738   1.000
    C257    C    0.65933   0.31446   0.01738   1.000
    C258    C    0.09605   0.35970   0.03504   1.000
    C259    C    0.59606   0.35970   0.03500   1.000
    C260    C    0.09255   0.36322   0.09921   1.000
    C261    C    0.59256   0.36322   0.09921   1.000
    C262    C    0.06441   0.29552   0.12981   1.000
    C263    C    0.56442   0.29553   0.12981   1.000
    C264    C    0.06306   0.29780   0.18862   1.000
    C265    C    0.56307   0.29780   0.18862   1.000
    C266    C    0.08973   0.36781   0.21740   1.000
    C267    C    0.58974   0.36781   0.21740   1.000
    C268    C    0.11761   0.43575   0.18701   1.000
    C269    C    0.61762   0.43575   0.18701   1.000
    C270    C    0.11906   0.43338   0.12810   1.000
    C271    C    0.61907   0.43338   0.12810   1.000
    C272    C    0.17763   0.08864   0.90866   1.000
    C273    C    0.67764   0.08864   0.90866   1.000
    C274    C    0.07795   0.15163   0.90369   1.000
    C275    C    0.57796   0.15163   0.90369   1.000
    C276    C    0.07651   0.92166   0.54994   1.000
    C277    C    0.57652   0.92166   0.54994   1.000
    C278    C    0.18330   0.88510   0.54606   1.000
    C279    C    0.68331   0.88510   0.54600   1.000
    C280    C    0.29209   0.18178   0.99018   1.000
    C281    C    0.79210   0.18178   0.99018   1.000
    C282    C    0.40275   0.25171   0.01459   1.000
    C283    C    0.90276   0.25171   0.01459   1.000
    C284    C    0.46201   0.15552   0.96530   1.000
    C285    C    0.96202   0.15552   0.96530   1.000
    C286    C    0.07369   0.91462   0.40978   1.000
    C287    C    0.57371   0.91462   0.40978   1.000
    C288    C    0.17314   0.85124   0.40504   1.000
    C289    C    0.67315   0.85123   0.40504   1.000
    C290    C    0.17577   0.07795   0.04914   1.000
    C291    C    0.67578   0.07795   0.04914   1.000
    C292    C    0.06914   0.11504   0.04527   1.000
    C293    C    0.56915   0.11504   0.04527   1.000
    C294    C    0.46021   0.81803   0.48946   1.000
    C295    C    0.96022   0.81803   0.48940   1.000
    C296    C    0.34972   0.74783   0.51366   1.000
    C297    C    0.84973   0.74782   0.51366   1.000
    C298    C    0.29021   0.84453   0.46460   1.000
    C299    C    0.79023   0.84453   0.46462   1.000
    C300    C    0.32366   0.58538   0.59026   1.000
    C301    C    0.82367   0.58538   0.59026   1.000
    C302    C    0.42312   0.64879   0.59490   1.000
    C303    C    0.92313   0.64878   0.59490   1.000
    C304    C    0.42579   0.42206   0.95086   1.000
    C305    C    0.92580   0.42206   0.95086   1.000
    C306    C    0.31914   0.38501   0.95481   1.000
    C307    C    0.81916   0.38501   0.95482   1.000
    C308    C    0.21020   0.68197   0.51056   1.000
    C309    C    0.71021   0.68197   0.51056   1.000
    C310    C    0.09973   0.75217   0.48635   1.000
    C311    C    0.59974   0.75217   0.48635   1.000
    C312    C    0.04017   0.65546   0.53541   1.000
    C313    C    0.54018   0.65546   0.53541   1.000
    C314    C    0.42765   0.41138   0.09135   1.000
    C315    C    0.92766   0.41138   0.09135   1.000
    C316    C    0.32795   0.34838   0.09633   1.000
    C317    C    0.82796   0.34838   0.09633   1.000
    C318    C    0.32652   0.57829   0.45013   1.000
    C319    C    0.82653   0.57828   0.45013   1.000
    C320    C    0.43332   0.61491   0.45394   1.000
    C321    C    0.93333   0.61491   0.45390   1.000
    C322    C    0.04210   0.31823   0.00983   1.000
    C323    C    0.54211   0.31823   0.00983   1.000
    C324    C    0.15274   0.24830   0.98541   1.000
    C325    C    0.65275   0.24830   0.98541   1.000
    C326    C    0.21202   0.34447   0.03460   1.000
    C327    C    0.71203   0.34447   0.03460   1.000
    O328    O    0.49874   0.34053   0.01483   1.000
    O329    O    0.56909   0.33897   0.02242   1.000
    O330    O    0.99874   0.34053   0.01482   1.000
    O331    O    0.06908   0.33897   0.02244   1.000
    O332    O    0.92907   0.30727   0.01720   1.000
    O333    O    0.90604   0.21862   0.99861   1.000
    O334    O    0.42906   0.30727   0.01721   1.000
    O335    O    0.40603   0.21862   0.99861   1.000
    O336    O    0.68568   0.32947   0.02599   1.000
    O337    O    0.62769   0.33708   0.02619   1.000
    O338    O    0.65604   0.28138   0.00140   1.000
    O339    O    0.18567   0.32947   0.02599   1.000
    O340    O    0.12768   0.33708   0.02621   1.000
    O341    O    0.15603   0.28138   0.00140   1.000
    O342    O    0.59830   0.39308   0.02690   1.000
    O343    O    0.09828   0.39308   0.02693   1.000
    O344    O    0.94152   0.38711   0.05558   1.000
    O345    O    0.94059   0.39244   0.98533   1.000
    O346    O    0.44151   0.38710   0.05559   1.000
    O347    O    0.44058   0.39244   0.98535   1.000
    O348    O    0.75861   0.32401   0.02725   1.000
    O349    O    0.81658   0.32596   0.05811   1.000
    O350    O    0.81217   0.34428   0.98735   1.000
    O351    O    0.25860   0.32401   0.02725   1.000
    O352    O    0.31656   0.32596   0.05811   1.000
    O353    O    0.31216   0.34428   0.98735   1.000
    O354    O    0.59431   0.36146   0.06711   1.000
    O355    O    0.09430   0.36146   0.06713   1.000
    O356    O    0.59379   0.09884   0.05750   1.000
    O357    O    0.56216   0.15575   0.01271   1.000
    O358    O    0.09378   0.09883   0.05750   1.000
    O359    O    0.06215   0.15575   0.01271   1.000
    O360    O    0.64710   0.08029   0.05944   1.000
    O361    O    0.69056   0.10757   0.01465   1.000
    O362    O    0.14709   0.08029   0.05944   1.000
    O363    O    0.19055   0.10757   0.01465   1.000
    O364    O    0.11357   0.06538   0.09887   1.000
    O365    O    0.61358   0.06538   0.09887   1.000
    O366    O    0.90104   0.40179   0.10393   1.000
    O367    O    0.40103   0.40179   0.10395   1.000
    O368    O    0.35117   0.37029   0.10644   1.000
    O369    O    0.85119   0.37029   0.10642   1.000
    O370    O    0.60581   0.39830   0.11366   1.000
    O371    O    0.57849   0.32937   0.11451   1.000
    O372    O    0.10580   0.39830   0.11366   1.000
    O373    O    0.07848   0.32937   0.11451   1.000
    O374    O    0.63022   0.45976   0.11634   1.000
    O375    O    0.13021   0.45976   0.11634   1.000
    O376    O    0.05396   0.26820   0.11867   1.000
    O377    O    0.55397   0.26820   0.11867   1.000
    O378    O    0.87037   0.40832   0.14593   1.000
    O379    O    0.37036   0.40833   0.14595   1.000
    O380    O    0.07762   0.05028   0.14083   1.000
    O381    O    0.13470   0.03134   0.14292   1.000
    O382    O    0.57763   0.05028   0.14083   1.000
    O383    O    0.63471   0.03134   0.14292   1.000
    O384    O    0.11833   0.43457   0.15756   1.000
    O385    O    0.61834   0.43457   0.15756   1.000
    O386    O    0.02646   0.06556   0.14142   1.000
    O387    O    0.52647   0.06556   0.14142   1.000
    O388    O    0.56374   0.29666   0.15922   1.000
    O389    O    0.06373   0.29666   0.15922   1.000
    O390    O    0.68441   0.01320   0.14777   1.000
    O391    O    0.18440   0.01320   0.14777   1.000
    O392    O    0.04211   0.03832   0.18090   1.000
    O393    O    0.54212   0.03832   0.18090   1.000
    O394    O    0.65688   0.99955   0.18581   1.000
    O395    O    0.15686   0.99955   0.18581   1.000
    O396    O    0.33542   0.42148   0.18849   1.000
    O397    O    0.39245   0.44162   0.18981   1.000
    O398    O    0.83543   0.42148   0.18849   1.000
    O399    O    0.89246   0.44161   0.18981   1.000
    O400    O    0.28446   0.40479   0.18974   1.000
    O401    O    0.78447   0.40479   0.18974   1.000
    O402    O    0.44218   0.46049   0.19398   1.000
    O403    O    0.94219   0.46049   0.19398   1.000
    O404    O    0.12802   0.46331   0.19803   1.000
    O405    O    0.10367   0.40178   0.20220   1.000
    O406    O    0.62803   0.46331   0.19803   1.000
    O407    O    0.60368   0.40178   0.20220   1.000
    O408    O    0.05222   0.27108   0.20029   1.000
    O409    O    0.07639   0.33280   0.20301   1.000
    O410    O    0.55223   0.27108   0.20029   1.000
    O411    O    0.57640   0.33281   0.20301   1.000
    O412    O    0.30030   0.43305   0.22871   1.000
    O413    O    0.80031   0.43305   0.22871   1.000
    O414    O    0.91500   0.47352   0.23228   1.000
    O415    O    0.41499   0.47353   0.23228   1.000
    O416    O    0.01392   0.02594   0.21810   1.000
    O417    O    0.06400   0.00708   0.22402   1.000
    O418    O    0.51392   0.02594   0.21810   1.000
    O419    O    0.56401   0.00708   0.22402   1.000
    O420    O    0.62168   0.98725   0.22684   1.000
    O421    O    0.67934   0.96705   0.22946   1.000
    O422    O    0.12167   0.98725   0.22684   1.000
    O423    O    0.17932   0.96705   0.22946   1.000
    O424    O    0.58907   0.36868   0.24038   1.000
    O425    O    0.08907   0.36868   0.24038   1.000
    O426    O    0.72938   0.94741   0.23515   1.000
    O427    O    0.22937   0.94741   0.23515   1.000
    O428    O    0.91279   0.87018   0.25900   1.000
    O429    O    0.41278   0.87019   0.25900   1.000
    O430    O    0.58658   0.97551   0.26803   1.000
    O431    O    0.08656   0.97551   0.26803   1.000
    O432    O    0.20126   0.93529   0.27231   1.000
    O433    O    0.70128   0.93529   0.27231   1.000
    O434    O    0.27235   0.44554   0.26588   1.000
    O435    O    0.32242   0.46529   0.27123   1.000
    O436    O    0.77236   0.44554   0.26588   1.000
    O437    O    0.82243   0.46529   0.27123   1.000
    O438    O    0.38007   0.48564   0.27347   1.000
    O439    O    0.43774   0.50567   0.27585   1.000
    O440    O    0.88008   0.48563   0.27348   1.000
    O441    O    0.93775   0.50566   0.27588   1.000
    O442    O    0.48783   0.52477   0.28136   1.000
    O443    O    0.98783   0.52476   0.28140   1.000
    O444    O    0.42568   0.83419   0.29642   1.000
    O445    O    0.39816   0.90298   0.29713   1.000
    O446    O    0.92570   0.83419   0.29642   1.000
    O447    O    0.89818   0.90297   0.29709   1.000
    O448    O    0.34508   0.49827   0.31451   1.000
    O449    O    0.84509   0.49827   0.31451   1.000
    O450    O    0.45008   0.77261   0.29923   1.000
    O451    O    0.95010   0.77261   0.29923   1.000
    O452    O    0.87360   0.96430   0.30119   1.000
    O453    O    0.37359   0.96431   0.30123   1.000
    O454    O    0.45982   0.53746   0.31858   1.000
    O455    O    0.95983   0.53746   0.31861   1.000
    O456    O    0.05920   0.96282   0.30635   1.000
    O457    O    0.10894   0.94413   0.31087   1.000
    O458    O    0.55922   0.96281   0.30635   1.000
    O459    O    0.60895   0.94413   0.31084   1.000
    O460    O    0.21693   0.90742   0.31157   1.000
    O461    O    0.16598   0.92411   0.31253   1.000
    O462    O    0.71694   0.90741   0.31157   1.000
    O463    O    0.66600   0.92411   0.31250   1.000
    O464    O    0.43861   0.79790   0.34026   1.000
    O465    O    0.93862   0.79789   0.34026   1.000
    O466    O    0.88353   0.93542   0.34166   1.000
    O467    O    0.38352   0.93543   0.34169   1.000
    O468    O    0.63096   0.91122   0.35505   1.000
    O469    O    0.13095   0.91122   0.35508   1.000
    O470    O    0.81776   0.51223   0.35254   1.000
    O471    O    0.86746   0.53059   0.35701   1.000
    O472    O    0.31775   0.51223   0.35254   1.000
    O473    O    0.36745   0.53059   0.35701   1.000
    O474    O    0.47565   0.56519   0.35776   1.000
    O475    O    0.42452   0.54975   0.35870   1.000
    O476    O    0.97566   0.56518   0.35777   1.000
    O477    O    0.92453   0.54974   0.35870   1.000
    O478    O    0.94861   0.76928   0.38086   1.000
    O479    O    0.92391   0.83027   0.38491   1.000
    O480    O    0.44860   0.76928   0.38086   1.000
    O481    O    0.42389   0.83027   0.38491   1.000
    O482    O    0.87170   0.96030   0.38288   1.000
    O483    O    0.89634   0.89902   0.38563   1.000
    O484    O    0.37168   0.96031   0.38288   1.000
    O485    O    0.39632   0.89902   0.38563   1.000
    O486    O    0.88873   0.56513   0.40064   1.000
    O487    O    0.38872   0.56513   0.40062   1.000
    O488    O    0.65001   0.87325   0.39482   1.000
    O489    O    0.60029   0.90494   0.39719   1.000
    O490    O    0.15000   0.87325   0.39482   1.000
    O491    O    0.10028   0.90494   0.39719   1.000
    O492    O    0.40804   0.86194   0.43208   1.000
    O493    O    0.90805   0.86194   0.43223   1.000
    O494    O    0.18524   0.82762   0.44302   1.000
    O495    O    0.68525   0.82762   0.44304   1.000
    O496    O    0.56043   0.88889   0.44543   1.000
    O497    O    0.06042   0.88889   0.44543   1.000
    O498    O    0.35524   0.58046   0.43987   1.000
    O499    O    0.40863   0.59877   0.44177   1.000
    O500    O    0.85525   0.58045   0.43988   1.000
    O501    O    0.90865   0.59877   0.44177   1.000
    O502    O    0.81184   0.60755   0.48452   1.000
    O503    O    0.31182   0.60756   0.48455   1.000
    O504    O    0.94033   0.65545   0.48644   1.000
    O505    O    0.44032   0.65546   0.48646   1.000
    O506    O    0.40413   0.89321   0.47227   1.000
    O507    O    0.37466   0.83720   0.47294   1.000
    O508    O    0.43326   0.83898   0.47673   1.000
    O509    O    0.90414   0.89321   0.47242   1.000
    O510    O    0.87468   0.83720   0.47309   1.000
    O511    O    0.93328   0.83898   0.47685   1.000
    O512    O    0.24377   0.82427   0.47280   1.000
    O513    O    0.31661   0.82950   0.47324   1.000
    O514    O    0.74378   0.82427   0.47282   1.000
    O515    O    0.81662   0.82950   0.47325   1.000
    O516    O    0.19032   0.84455   0.51353   1.000
    O517    O    0.69033   0.84455   0.51352   1.000
    O518    O    0.57345   0.80767   0.48371   1.000
    O519    O    0.50368   0.84060   0.48527   1.000
    O520    O    0.56184   0.89242   0.51551   1.000
    O521    O    0.07344   0.80767   0.48371   1.000
    O522    O    0.00369   0.84060   0.48524   1.000
    O523    O    0.06183   0.89242   0.51551   1.000
    O524    O    0.34637   0.78115   0.49777   1.000
    O525    O    0.84638   0.78115   0.49777   1.000
    O526    O    0.09636   0.71885   0.50226   1.000
    O527    O    0.59637   0.71885   0.50226   1.000
    O528    O    0.25366   0.65940   0.51477   1.000
    O529    O    0.18323   0.66103   0.52315   1.000
    O530    O    0.75368   0.65940   0.51473   1.000
    O531    O    0.68325   0.66103   0.52315   1.000
    O532    O    0.32343   0.69233   0.51632   1.000
    O533    O    0.82344   0.69233   0.51628   1.000
    O534    O    0.06658   0.67050   0.52679   1.000
    O535    O    0.12463   0.66281   0.52695   1.000
    O536    O    0.56659   0.67050   0.52679   1.000
    O537    O    0.62464   0.66281   0.52695   1.000
    O538    O    0.81040   0.61110   0.55458   1.000
    O539    O    0.31039   0.61111   0.55462   1.000
    O540    O    0.99376   0.67573   0.52720   1.000
    O541    O    0.93524   0.67239   0.55694   1.000
    O542    O    0.49375   0.67573   0.52720   1.000
    O543    O    0.43522   0.67240   0.55694   1.000
    O544    O    0.15408   0.60681   0.52763   1.000
    O545    O    0.65409   0.60681   0.52763   1.000
    O546    O    0.15798   0.63808   0.56781   1.000
    O547    O    0.65799   0.63808   0.56777   1.000
    O548    O    0.65864   0.90122   0.55820   1.000
    O549    O    0.15863   0.90122   0.55823   1.000
    O550    O    0.60524   0.91951   0.56017   1.000
    O551    O    0.10523   0.91951   0.56017   1.000
    O552    O    0.63873   0.93484   0.59940   1.000
    O553    O    0.13871   0.93484   0.59940   1.000
    O554    O    0.85025   0.59506   0.60285   1.000
    O555    O    0.35024   0.59506   0.60284   1.000
    O556    O    0.39997   0.62676   0.60516   1.000
    O557    O    0.89998   0.62676   0.60517   1.000
    O558    O    0.64628   0.60099   0.61435   1.000
    O559    O    0.67385   0.66976   0.61508   1.000
    O560    O    0.14627   0.60099   0.61441   1.000
    O561    O    0.17384   0.66976   0.61511   1.000
    O562    O    0.62165   0.53968   0.61715   1.000
    O563    O    0.12164   0.53968   0.61717   1.000
    O564    O    0.69856   0.73076   0.61917   1.000
    O565    O    0.19855   0.73076   0.61916   1.000
    O566    O    0.38092   0.58876   0.64493   1.000
    O567    O    0.88094   0.58876   0.64494   1.000
    O568    O    0.17451   0.95023   0.64133   1.000
    O569    O    0.11744   0.96938   0.64304   1.000
    O570    O    0.67452   0.95023   0.64133   1.000
    O571    O    0.61746   0.96938   0.64304   1.000
    O572    O    0.63349   0.56457   0.65834   1.000
    O573    O    0.13348   0.56457   0.65832   1.000
    O574    O    0.72565   0.93480   0.64223   1.000
    O575    O    0.22564   0.93480   0.64224   1.000
    O576    O    0.18857   0.70214   0.65975   1.000
    O577    O    0.68858   0.70214   0.65976   1.000
    O578    O    0.06775   0.98773   0.64752   1.000
    O579    O    0.56776   0.98773   0.64752   1.000
    O580    O    0.70982   0.96252   0.68141   1.000
    O581    O    0.20981   0.96252   0.68141   1.000
    O582    O    0.09508   0.00170   0.68554   1.000
    O583    O    0.59509   0.00170   0.68554   1.000
    O584    O    0.41597   0.57586   0.68742   1.000
    O585    O    0.35892   0.55583   0.68912   1.000
    O586    O    0.91598   0.57586   0.68744   1.000
    O587    O    0.85894   0.55582   0.68916   1.000
    O588    O    0.96694   0.59256   0.68836   1.000
    O589    O    0.46692   0.59257   0.68835   1.000
    O590    O    0.80920   0.53712   0.69372   1.000
    O591    O    0.30919   0.53712   0.69368   1.000
    O592    O    0.12357   0.53566   0.69875   1.000
    O593    O    0.14814   0.59702   0.70288   1.000
    O594    O    0.62358   0.53566   0.69883   1.000
    O595    O    0.64815   0.59702   0.70292   1.000
    O596    O    0.20006   0.72742   0.70078   1.000
    O597    O    0.17566   0.66582   0.70361   1.000
    O598    O    0.70007   0.72742   0.70079   1.000
    O599    O    0.67567   0.66582   0.70361   1.000
    O600    O    0.45126   0.56470   0.72762   1.000
    O601    O    0.95127   0.56469   0.72763   1.000
    O602    O    0.33655   0.52444   0.73195   1.000
    O603    O    0.83657   0.52444   0.73202   1.000
    O604    O    0.23781   0.97523   0.71861   1.000
    O605    O    0.18773   0.99432   0.72414   1.000
    O606    O    0.73782   0.97522   0.71861   1.000
    O607    O    0.68774   0.99432   0.72414   1.000
    O608    O    0.63008   0.01435   0.72657   1.000
    O609    O    0.57243   0.03469   0.72880   1.000
    O610    O    0.13007   0.01435   0.72657   1.000
    O611    O    0.07242   0.03469   0.72880   1.000
    O612    O    0.16277   0.62981   0.74102   1.000
    O613    O    0.66278   0.62981   0.74103   1.000
    O614    O    0.52237   0.05443   0.73416   1.000
    O615    O    0.02236   0.05443   0.73416   1.000
    O616    O    0.83908   0.13128   0.75963   1.000
    O617    O    0.33907   0.13128   0.75964   1.000
    O618    O    0.66499   0.02646   0.76775   1.000
    O619    O    0.16498   0.02646   0.76775   1.000
    O620    O    0.05030   0.06693   0.77132   1.000
    O621    O    0.55031   0.06694   0.77132   1.000
    O622    O    0.97780   0.55259   0.76481   1.000
    O623    O    0.92933   0.53293   0.77053   1.000
    O624    O    0.47937   0.55260   0.76481   1.000
    O625    O    0.42932   0.53294   0.77053   1.000
    O626    O    0.37166   0.51272   0.77316   1.000
    O627    O    0.31399   0.49288   0.77601   1.000
    O628    O    0.87167   0.51272   0.77319   1.000
    O629    O    0.81400   0.49288   0.77604   1.000
    O630    O    0.76391   0.47400   0.78200   1.000
    O631    O    0.26389   0.47400   0.78200   1.000
    O632    O    0.82642   0.16717   0.79699   1.000
    O633    O    0.85369   0.09821   0.79779   1.000
    O634    O    0.32641   0.16716   0.79700   1.000
    O635    O    0.35368   0.09820   0.79780   1.000
    O636    O    0.90687   0.50045   0.81420   1.000
    O637    O    0.40686   0.50046   0.81420   1.000
    O638    O    0.80225   0.22888   0.79973   1.000
    O639    O    0.30224   0.22888   0.79973   1.000
    O640    O    0.37803   0.03669   0.80197   1.000
    O641    O    0.87804   0.03669   0.80197   1.000
    O642    O    0.29210   0.46164   0.81916   1.000
    O643    O    0.79212   0.46165   0.81918   1.000
    O644    O    0.69218   0.03951   0.80603   1.000
    O645    O    0.64246   0.05838   0.81022   1.000
    O646    O    0.19216   0.03951   0.80603   1.000
    O647    O    0.14245   0.05838   0.81022   1.000
    O648    O    0.53447   0.09520   0.81022   1.000
    O649    O    0.58543   0.07851   0.81156   1.000
    O650    O    0.03446   0.09520   0.81022   1.000
    O651    O    0.08542   0.07851   0.81156   1.000
    O652    O    0.81377   0.20332   0.84079   1.000
    O653    O    0.31375   0.20331   0.84079   1.000
    O654    O    0.36835   0.06544   0.84241   1.000
    O655    O    0.86836   0.06544   0.84241   1.000
    O656    O    0.12035   0.09167   0.85408   1.000
    O657    O    0.62036   0.09167   0.85408   1.000
    O658    O    0.43440   0.48683   0.85223   1.000
    O659    O    0.38470   0.46868   0.85711   1.000
    O660    O    0.93442   0.48683   0.85223   1.000
    O661    O    0.88471   0.46867   0.85710   1.000
    O662    O    0.27645   0.43441   0.85865   1.000
    O663    O    0.32762   0.44971   0.85922   1.000
    O664    O    0.77646   0.43442   0.85868   1.000
    O665    O    0.82763   0.44971   0.85923   1.000
    O666    O    0.80400   0.23179   0.88134   1.000
    O667    O    0.82851   0.17062   0.88550   1.000
    O668    O    0.30399   0.23178   0.88134   1.000
    O669    O    0.32850   0.17062   0.88550   1.000
    O670    O    0.88023   0.04026   0.88362   1.000
    O671    O    0.85583   0.10171   0.88631   1.000
    O672    O    0.38022   0.04026   0.88362   1.000
    O673    O    0.35582   0.10171   0.88631   1.000
    O674    O    0.86359   0.43463   0.90116   1.000
    O675    O    0.36358   0.43464   0.90117   1.000
    O676    O    0.10117   0.12971   0.89359   1.000
    O677    O    0.15101   0.09822   0.89607   1.000
    O678    O    0.60118   0.12971   0.89359   1.000
    O679    O    0.65102   0.09822   0.89607   1.000
    O680    O    0.34430   0.13854   0.93288   1.000
    O681    O    0.84431   0.13855   0.93288   1.000
    O682    O    0.56657   0.17404   0.94192   1.000
    O683    O    0.06656   0.17404   0.94192   1.000
    O684    O    0.19148   0.11291   0.94441   1.000
    O685    O    0.69150   0.11291   0.94441   1.000
    O686    O    0.89712   0.41973   0.94059   1.000
    O687    O    0.84380   0.40120   0.94257   1.000
    O688    O    0.39711   0.41973   0.94059   1.000
    O689    O    0.34379   0.40120   0.94256   1.000
    O690    O    0.84826   0.10693   0.97308   1.000
    O691    O    0.87769   0.16292   0.97380   1.000
    O692    O    0.81908   0.16104   0.97758   1.000
    O693    O    0.34825   0.10693   0.97308   1.000
    O694    O    0.37767   0.16292   0.97380   1.000
    O695    O    0.31906   0.16104   0.97758   1.000
    O696    O    0.00859   0.17599   0.97272   1.000
    O697    O    0.93567   0.17053   0.97397   1.000
    O698    O    0.50859   0.17599   0.97272   1.000
    O699    O    0.43566   0.17053   0.97397   1.000
    O700    O    0.67905   0.19275   0.98279   1.000
    O701    O    0.74872   0.15948   0.98517   1.000
    O702    O    0.17904   0.19275   0.98279   1.000
    O703    O    0.24871   0.15948   0.98517   1.000
    O704    O    0.29863   0.24266   0.00504   1.000
    O705    O    0.79865   0.24266   0.00504   1.000
    O706    O    0.35397   0.27763   0.01724   1.000
    O707    O    0.85398   0.27763   0.01724   1.000
    O708    O    0.45377   0.75702   0.50422   1.000
    O709    O    0.95378   0.75702   0.50419   1.000
    O710    O    0.39853   0.72191   0.51632   1.000
    O711    O    0.89854   0.72191   0.51632   1.000
    O712    O    0.20376   0.74299   0.49578   1.000
    O713    O    0.70378   0.74299   0.49579   1.000
    O714    O    0.14853   0.77809   0.48368   1.000
    O715    O    0.64854   0.77809   0.48369   1.000
    O716    O    0.04863   0.25734   0.99499   1.000
    O717    O    0.54864   0.25734   0.99499   1.000
    O718    O    0.10395   0.22238   0.98278   1.000
    O719    O    0.60396   0.22238   0.98278   1.000
loop_
    _geom_bond_atom_site_label_1
    _geom_bond_atom_site_label_2
    _geom_bond_distance
    _geom_bond_site_symmetry_2
    _ccdc_geom_bond_type
    C323   O328      0.96697      .   S
    C14    O328      0.96697      .   S
    C323   O329      0.70925      .   S
    C259   O329      0.70925      .   S
    C322   O330      0.96669  1_455   S
    C15    O330      0.96669      .   S
    C322   O331      0.70946      .   S
    C258   O331      0.70946      .   S
    C283   O332      1.01994      .   S
    C15    O332      1.01994      .   S
    C283   O333      0.64229  1_554   S
    C137   O333      0.64229      .   S
    C282   O334      1.01996      .   S
    C14    O334      1.01996      .   S
    C282   O335      0.64229  1_554   S
    C136   O335      0.64229      .   S
    C257   O336      0.62598      .   S
    C327   O336      0.62598      .   S
    C257   O337      0.77019      .   S
    C259   O337      0.77019      .   S
    C257   O338      0.64236      .   S
    C325   O338      0.64236  1_556   S
    C256   O339      0.62599      .   S
    C326   O339      0.62599      .   S
    C256   O340      0.77031      .   S
    C258   O340      0.77031      .   S
    C256   O341      0.64235      .   S
    C324   O341      0.64235  1_556   S
    C101   O342      0.55304      .   S
    C259   O342      0.55304      .   S
    C100   O343      0.55320      .   S
    C258   O343      0.55320      .   S
    C15    O344      0.97247      .   S
    C315   O344      0.97247      .   S
    C15    O345      0.98486  1_554   S
    C305   O345      0.98486      .   S
    C14    O346      0.97214      .   S
    C314   O346      0.97214      .   S
    C14    O347      0.98515  1_554   S
    C304   O347      0.98515      .   S
    C1     O348      1.02738      .   S
    C327   O348      1.02738      .   S
    C1     O349      1.00011      .   S
    C317   O349      1.00011      .   S
    C1     O350      1.00572  1_554   S
    C307   O350      1.00572      .   S
    C0     O351      1.02737      .   S
    C326   O351      1.02737      .   S
    C0     O352      1.00010      .   S
    C316   O352      1.00010      .   S
    C0     O353      1.00578  1_554   S
    C306   O353      1.00578      .   S
    C259   O354      0.76303      .   S
    C261   O354      0.76303      .   S
    C258   O355      0.76255      .   S
    C260   O355      0.76255      .   S
    C293   O356      0.63674      .   S
    C175   O356      0.63674      .   S
    C293   O357      1.00608      .   S
    C13    O357      1.00608  1_556   S
    C292   O358      0.63673      .   S
    C174   O358      0.63673      .   S
    C292   O359      1.00610      .   S
    C12    O359      1.00610  1_556   S
    C291   O360      0.64116      .   S
    C175   O360      0.64116      .   S
    C291   O361      0.98507      .   S
    C3     O361      0.98507  1_556   S
    C290   O362      0.64116      .   S
    C174   O362      0.64116      .   S
    C290   O363      0.98508      .   S
    C2     O363      0.98508  1_556   S
    C174   O364      0.74695      .   S
    C168   O364      0.74695      .   S
    C175   O365      0.74696      .   S
    C169   O365      0.74696      .   S
    C315   O366      0.64227      .   S
    C233   O366      0.64227      .   S
    C314   O367      0.64250      .   S
    C232   O367      0.64250      .   S
    C316   O368      0.63491      .   S
    C232   O368      0.63491      .   S
    C317   O369      0.63472      .   S
    C233   O369      0.63472      .   S
    C261   O370      0.69941      .   S
    C271   O370      0.69941      .   S
    C261   O371      0.69983      .   S
    C263   O371      0.69983      .   S
    C260   O372      0.69941      .   S
    C270   O372      0.69941      .   S
    C260   O373      0.69983      .   S
    C262   O373      0.69983      .   S
    C111   O374      0.54492      .   S
    C271   O374      0.54492      .   S
    C110   O375      0.54492      .   S
    C270   O375      0.54492      .   S
    C102   O376      0.54450      .   S
    C262   O376      0.54450      .   S
    C103   O377      0.54451      .   S
    C263   O377      0.54451      .   S
    C233   O378      0.74697      .   S
    C235   O378      0.74697      .   S
    C232   O379      0.74654      .   S
    C234   O379      0.74654      .   S
    C168   O380      0.71100      .   S
    C170   O380      0.71100      .   S
    C168   O381      0.69260      .   S
    C166   O381      0.69260      .   S
    C169   O382      0.71099      .   S
    C171   O382      0.71099      .   S
    C169   O383      0.69261      .   S
    C167   O383      0.69261      .   S
    C270   O384      0.69919      .   S
    C268   O384      0.69919      .   S
    C271   O385      0.69919      .   S
    C269   O385      0.69919      .   S
    C48    O386      0.54448      .   S
    C170   O386      0.54448      .   S
    C49    O387      0.54441      .   S
    C171   O387      0.54441      .   S
    C263   O388      0.69797      .   S
    C265   O388      0.69797      .   S
    C262   O389      0.69796      .   S
    C264   O389      0.69796      .   S
    C47    O390      0.54492      .   S
    C167   O390      0.54492      .   S
    C46    O391      0.54493      .   S
    C166   O391      0.54493      .   S
    C170   O392      0.68788      .   S
    C172   O392      0.68788      .   S
    C171   O393      0.68789      .   S
    C173   O393      0.68789      .   S
    C167   O394      0.70693  1_545   S
    C161   O394      0.70693      .   S
    C166   O395      0.70692  1_545   S
    C160   O395      0.70692      .   S
    C234   O396      0.71091      .   S
    C236   O396      0.71091      .   S
    C234   O397      0.69276      .   S
    C244   O397      0.69276      .   S
    C235   O398      0.71094      .   S
    C237   O398      0.71094      .   S
    C235   O399      0.69276      .   S
    C245   O399      0.69276      .   S
    C88    O400      0.54441      .   S
    C236   O400      0.54441      .   S
    C89    O401      0.54440      .   S
    C237   O401      0.54440      .   S
    C92    O402      0.54488      .   S
    C244   O402      0.54488      .   S
    C93    O403      0.54489      .   S
    C245   O403      0.54489      .   S
    C268   O404      0.54559      .   S
    C108   O404      0.54559      .   S
    C268   O405      0.69885      .   S
    C266   O405      0.69885      .   S
    C269   O406      0.54559      .   S
    C109   O406      0.54559      .   S
    C269   O407      0.69885      .   S
    C267   O407      0.69885      .   S
    C264   O408      0.54518      .   S
    C104   O408      0.54518      .   S
    C264   O409      0.69853      .   S
    C266   O409      0.69853      .   S
    C265   O410      0.54518      .   S
    C105   O410      0.54518      .   S
    C265   O411      0.69853      .   S
    C267   O411      0.69853      .   S
    C236   O412      0.68733      .   S
    C238   O412      0.68733      .   S
    C237   O413      0.68732      .   S
    C239   O413      0.68732      .   S
    C245   O414      0.70750      .   S
    C243   O414      0.70750      .   S
    C244   O415      0.70741      .   S
    C242   O415      0.70741      .   S
    C172   O416      0.54529      .   S
    C51    O416      0.54529  1_655   S
    C172   O417      0.71122      .   S
    C162   O417      0.71122  1_565   S
    C173   O418      0.54550      .   S
    C50    O418      0.54550      .   S
    C173   O419      0.71122      .   S
    C163   O419      0.71122  1_565   S
    C161   O420      0.71895      .   S
    C163   O420      0.71895      .   S
    C161   O421      0.71082      .   S
    C159   O421      0.71082      .   S
    C160   O422      0.71896      .   S
    C162   O422      0.71896      .   S
    C160   O423      0.71081      .   S
    C158   O423      0.71081      .   S
    C267   O424      0.54540      .   S
    C107   O424      0.54540      .   S
    C266   O425      0.54540      .   S
    C106   O425      0.54540      .   S
    C43    O426      0.54566      .   S
    C159   O426      0.54566      .   S
    C42    O427      0.54566      .   S
    C158   O427      0.54566      .   S
    C59    O428      0.54531      .   S
    C187   O428      0.54531      .   S
    C58    O429      0.54531      .   S
    C186   O429      0.54531      .   S
    C163   O430      0.70765      .   S
    C165   O430      0.70765      .   S
    C162   O431      0.70765      .   S
    C164   O431      0.70765      .   S
    C158   O432      0.68675      .   S
    C156   O432      0.68675      .   S
    C159   O433      0.68675      .   S
    C157   O433      0.68675      .   S
    C238   O434      0.54569      .   S
    C90    O434      0.54569      .   S
    C238   O435      0.71089      .   S
    C240   O435      0.71089      .   S
    C239   O436      0.54570      .   S
    C91    O436      0.54570      .   S
    C239   O437      0.71090      .   S
    C241   O437      0.71090      .   S
    C242   O438      0.71892      .   S
    C240   O438      0.71892      .   S
    C242   O439      0.71086      .   S
    C252   O439      0.71086      .   S
    C243   O440      0.71888      .   S
    C241   O440      0.71888      .   S
    C243   O441      0.71117      .   S
    C253   O441      0.71117      .   S
    C99    O442      0.54522      .   S
    C252   O442      0.54522      .   S
    C98    O443      0.54526  1_455   S
    C253   O443      0.54526      .   S
    C186   O444      0.69852      .   S
    C184   O444      0.69852      .   S
    C186   O445      0.69884      .   S
    C188   O445      0.69884      .   S
    C187   O446      0.69856      .   S
    C185   O446      0.69856      .   S
    C187   O447      0.69841      .   S
    C189   O447      0.69841      .   S
    C240   O448      0.70684      .   S
    C246   O448      0.70684      .   S
    C241   O449      0.70683      .   S
    C247   O449      0.70683      .   S
    C56    O450      0.54513      .   S
    C184   O450      0.54513      .   S
    C57    O451      0.54514      .   S
    C185   O451      0.54514      .   S
    C61    O452      0.54511      .   S
    C189   O452      0.54511      .   S
    C60    O453      0.54550      .   S
    C188   O453      0.54550      .   S
    C252   O454      0.68855      .   S
    C250   O454      0.68855      .   S
    C253   O455      0.68788      .   S
    C251   O455      0.68788      .   S
    C164   O456      0.54496      .   S
    C44    O456      0.54496      .   S
    C164   O457      0.69275      .   S
    C154   O457      0.69275      .   S
    C165   O458      0.54495      .   S
    C45    O458      0.54495      .   S
    C165   O459      0.69240      .   S
    C155   O459      0.69240      .   S
    C156   O460      0.54465      .   S
    C40    O460      0.54465      .   S
    C156   O461      0.71110      .   S
    C154   O461      0.71110      .   S
    C157   O462      0.54465      .   S
    C41    O462      0.54465      .   S
    C157   O463      0.71080      .   S
    C155   O463      0.71080      .   S
    C184   O464      0.69798      .   S
    C182   O464      0.69798      .   S
    C185   O465      0.69786      .   S
    C183   O465      0.69786      .   S
    C189   O466      0.69908      .   S
    C191   O466      0.69908      .   S
    C188   O467      0.69825      .   S
    C190   O467      0.69825      .   S
    C155   O468      0.74729      .   S
    C153   O468      0.74729      .   S
    C154   O469      0.74663      .   S
    C152   O469      0.74663      .   S
    C247   O470      0.54493      .   S
    C95    O470      0.54493      .   S
    C247   O471      0.69264      .   S
    C249   O471      0.69264      .   S
    C246   O472      0.54492      .   S
    C94    O472      0.54492      .   S
    C246   O473      0.69263      .   S
    C248   O473      0.69263      .   S
    C250   O474      0.54440      .   S
    C96    O474      0.54440      .   S
    C250   O475      0.71084      .   S
    C248   O475      0.71084      .   S
    C251   O476      0.54446      .   S
    C97    O476      0.54446      .   S
    C251   O477      0.71085      .   S
    C249   O477      0.71085      .   S
    C183   O478      0.54450      .   S
    C55    O478      0.54450      .   S
    C183   O479      0.69976      .   S
    C181   O479      0.69976      .   S
    C182   O480      0.54451      .   S
    C54    O480      0.54451      .   S
    C182   O481      0.69975      .   S
    C180   O481      0.69975      .   S
    C191   O482      0.54544      .   S
    C63    O482      0.54544      .   S
    C191   O483      0.69975      .   S
    C181   O483      0.69975      .   S
    C190   O484      0.54543      .   S
    C62    O484      0.54543      .   S
    C190   O485      0.69976      .   S
    C180   O485      0.69976      .   S
    C249   O486      0.74684      .   S
    C255   O486      0.74684      .   S
    C248   O487      0.74639      .   S
    C254   O487      0.74639      .   S
    C153   O488      0.63462      .   S
    C289   O488      0.63462      .   S
    C153   O489      0.64257      .   S
    C287   O489      0.64257      .   S
    C152   O490      0.63461      .   S
    C288   O490      0.63461      .   S
    C152   O491      0.64258      .   S
    C286   O491      0.64258      .   S
    C180   O492      0.75868      .   S
    C178   O492      0.75868      .   S
    C181   O493      0.76223      .   S
    C179   O493      0.76223      .   S
    C288   O494      1.00293      .   S
    C8     O494      1.00293      .   S
    C289   O495      1.00323      .   S
    C9     O495      1.00323      .   S
    C287   O496      0.97284      .   S
    C7     O496      0.97284      .   S
    C286   O497      0.97283      .   S
    C6     O497      0.97283      .   S
    C254   O498      0.64146      .   S
    C318   O498      0.64146      .   S
    C254   O499      0.63706      .   S
    C320   O499      0.63706      .   S
    C255   O500      0.64124      .   S
    C319   O500      0.64124      .   S
    C255   O501      0.63663      .   S
    C321   O501      0.63663      .   S
    C319   O502      0.98271      .   S
    C11    O502      0.98271      .   S
    C318   O503      0.98336      .   S
    C10    O503      0.98336      .   S
    C321   O504      1.00754      .   S
    C5     O504      1.00754      .   S
    C320   O505      1.00716      .   S
    C4     O505      1.00716      .   S
    C178   O506      0.55441      .   S
    C52    O506      0.55441      .   S
    C178   O507      0.77129      .   S
    C176   O507      0.77129      .   S
    C178   O508      0.71086      .   S
    C294   O508      0.71086      .   S
    C179   O509      0.55315      .   S
    C53    O509      0.55315      .   S
    C179   O510      0.77032      .   S
    C177   O510      0.77032      .   S
    C179   O511      0.70906      .   S
    C295   O511      0.70906      .   S
    C298   O512      1.02677      .   S
    C8     O512      1.02677      .   S
    C298   O513      0.62671      .   S
    C176   O513      0.62671      .   S
    C299   O514      1.02681      .   S
    C9     O514      1.02681      .   S
    C299   O515      0.62664      .   S
    C177   O515      0.62664      .   S
    C8     O516      1.00737      .   S
    C278   O516      1.00737      .   S
    C9     O517      1.00655      .   S
    C279   O517      1.00655      .   S
    C7     O518      1.01888      .   S
    C311   O518      1.01888      .   S
    C7     O519      0.96778      .   S
    C294   O519      0.96778      .   S
    C7     O520      0.98346      .   S
    C277   O520      0.98346      .   S
    C6     O521      1.01887      .   S
    C310   O521      1.01887      .   S
    C6     O522      0.96748      .   S
    C295   O522      0.96748  1_655   S
    C6     O523      0.98348      .   S
    C276   O523      0.98348      .   S
    C176   O524      0.64217      .   S
    C296   O524      0.64217      .   S
    C177   O525      0.64218      .   S
    C297   O525      0.64218      .   S
    C310   O526      0.64225      .   S
    C216   O526      0.64225      .   S
    C311   O527      0.64224      .   S
    C217   O527      0.64224      .   S
    C308   O528      0.96789      .   S
    C10    O528      0.96789      .   S
    C308   O529      0.70940      .   S
    C218   O529      0.70940      .   S
    C309   O530      0.96781      .   S
    C11    O530      0.96781      .   S
    C309   O531      0.70941      .   S
    C219   O531      0.70941      .   S
    C296   O532      1.01867      .   S
    C10    O532      1.01867      .   S
    C297   O533      1.01861      .   S
    C11    O533      1.01861      .   S
    C216   O534      0.62664      .   S
    C312   O534      0.62664      .   S
    C216   O535      0.77038      .   S
    C218   O535      0.77038      .   S
    C217   O536      0.62665      .   S
    C313   O536      0.62665      .   S
    C217   O537      0.77037      .   S
    C219   O537      0.77037      .   S
    C11    O538      0.97370      .   S
    C301   O538      0.97370      .   S
    C10    O539      0.97298      .   S
    C300   O539      0.97298      .   S
    C5     O540      1.02659      .   S
    C312   O540      1.02659  1_455   S
    C5     O541      1.00233      .   S
    C303   O541      1.00233      .   S
    C4     O542      1.02682      .   S
    C313   O542      1.02682      .   S
    C4     O543      1.00232      .   S
    C302   O543      1.00232      .   S
    C76    O544      0.55317      .   S
    C218   O544      0.55317      .   S
    C77    O545      0.55317      .   S
    C219   O545      0.55317      .   S
    C218   O546      0.76212      .   S
    C220   O546      0.76212      .   S
    C219   O547      0.76118      .   S
    C221   O547      0.76118      .   S
    C279   O548      0.63723      .   S
    C135   O548      0.63723      .   S
    C278   O549      0.63690      .   S
    C134   O549      0.63690      .   S
    C277   O550      0.64127      .   S
    C135   O550      0.64127      .   S
    C276   O551      0.64128      .   S
    C134   O551      0.64128      .   S
    C135   O552      0.74675      .   S
    C129   O552      0.74675      .   S
    C134   O553      0.74674      .   S
    C128   O553      0.74674      .   S
    C301   O554      0.64264      .   S
    C193   O554      0.64264      .   S
    C300   O555      0.64259      .   S
    C192   O555      0.64259      .   S
    C302   O556      0.63493      .   S
    C192   O556      0.63493      .   S
    C303   O557      0.63496      .   S
    C193   O557      0.63496      .   S
    C221   O558      0.70000      .   S
    C231   O558      0.70000      .   S
    C221   O559      0.70032      .   S
    C223   O559      0.70032      .   S
    C220   O560      0.69977      .   S
    C230   O560      0.69977      .   S
    C220   O561      0.69977      .   S
    C222   O561      0.69977      .   S
    C87    O562      0.54520      .   S
    C231   O562      0.54520      .   S
    C86    O563      0.54544      .   S
    C230   O563      0.54544      .   S
    C79    O564      0.54451      .   S
    C223   O564      0.54451      .   S
    C78    O565      0.54446      .   S
    C222   O565      0.54446      .   S
    C192   O566      0.74654      .   S
    C194   O566      0.74654      .   S
    C193   O567      0.74656      .   S
    C195   O567      0.74656      .   S
    C128   O568      0.71085      .   S
    C130   O568      0.71085      .   S
    C128   O569      0.69264      .   S
    C126   O569      0.69264      .   S
    C129   O570      0.71084      .   S
    C131   O570      0.71084      .   S
    C129   O571      0.69264      .   S
    C127   O571      0.69264      .   S
    C231   O572      0.69874      .   S
    C229   O572      0.69874      .   S
    C230   O573      0.69732      .   S
    C228   O573      0.69732      .   S
    C25    O574      0.54450      .   S
    C131   O574      0.54450      .   S
    C24    O575      0.54443      .   S
    C130   O575      0.54443      .   S
    C222   O576      0.69787      .   S
    C224   O576      0.69787      .   S
    C223   O577      0.69787      .   S
    C225   O577      0.69787      .   S
    C22    O578      0.54491      .   S
    C126   O578      0.54491      .   S
    C23    O579      0.54491      .   S
    C127   O579      0.54491      .   S
    C131   O580      0.68793      .   S
    C133   O580      0.68793      .   S
    C130   O581      0.68793      .   S
    C132   O581      0.68793      .   S
    C126   O582      0.70691  1_565   S
    C120   O582      0.70691      .   S
    C127   O583      0.70691  1_565   S
    C121   O583      0.70691      .   S
    C194   O584      0.71082      .   S
    C196   O584      0.71082      .   S
    C194   O585      0.69242      .   S
    C204   O585      0.69242      .   S
    C195   O586      0.71087      .   S
    C197   O586      0.71087      .   S
    C195   O587      0.69277      .   S
    C205   O587      0.69277      .   S
    C65    O588      0.54433      .   S
    C197   O588      0.54433      .   S
    C64    O589      0.54420      .   S
    C196   O589      0.54420      .   S
    C69    O590      0.54494      .   S
    C205   O590      0.54494      .   S
    C68    O591      0.54457      .   S
    C204   O591      0.54457      .   S
    C228   O592      0.54551      .   S
    C84    O592      0.54551      .   S
    C228   O593      0.69930      .   S
    C226   O593      0.69930      .   S
    C229   O594      0.54551      .   S
    C85    O594      0.54551      .   S
    C229   O595      0.69888      .   S
    C227   O595      0.69888      .   S
    C224   O596      0.54520      .   S
    C80    O596      0.54520      .   S
    C224   O597      0.69855      .   S
    C226   O597      0.69855      .   S
    C225   O598      0.54514      .   S
    C81    O598      0.54514      .   S
    C225   O599      0.69855      .   S
    C227   O599      0.69855      .   S
    C196   O600      0.68757      .   S
    C198   O600      0.68757      .   S
    C197   O601      0.68734      .   S
    C199   O601      0.68734      .   S
    C204   O602      0.70768      .   S
    C202   O602      0.70768      .   S
    C205   O603      0.70767      .   S
    C203   O603      0.70767      .   S
    C132   O604      0.54552      .   S
    C26    O604      0.54552      .   S
    C132   O605      0.71118      .   S
    C122   O605      0.71118  1_545   S
    C133   O606      0.54551      .   S
    C27    O606      0.54551      .   S
    C133   O607      0.71119      .   S
    C123   O607      0.71119  1_545   S
    C121   O608      0.71887      .   S
    C123   O608      0.71887      .   S
    C121   O609      0.71051      .   S
    C119   O609      0.71051      .   S
    C120   O610      0.71887      .   S
    C122   O610      0.71887      .   S
    C120   O611      0.71051      .   S
    C118   O611      0.71051      .   S
    C226   O612      0.54532      .   S
    C82    O612      0.54532      .   S
    C227   O613      0.54520      .   S
    C83    O613      0.54520      .   S
    C19    O614      0.54539      .   S
    C119   O614      0.54539      .   S
    C18    O615      0.54540  1_655   S
    C118   O615      0.54540      .   S
    C35    O616      0.54529      .   S
    C147   O616      0.54529      .   S
    C34    O617      0.54541      .   S
    C146   O617      0.54541      .   S
    C123   O618      0.70745      .   S
    C125   O618      0.70745      .   S
    C122   O619      0.70745      .   S
    C124   O619      0.70745      .   S
    C118   O620      0.68794      .   S
    C116   O620      0.68794      .   S
    C119   O621      0.68794      .   S
    C117   O621      0.68794      .   S
    C199   O622      0.51660      .   S
    C67    O622      0.51660  1_455   S
    C199   O623      0.71077      .   S
    C201   O623      0.71077      .   S
    C198   O624      0.54565      .   S
    C66    O624      0.54565      .   S
    C198   O625      0.71077      .   S
    C200   O625      0.71077      .   S
    C202   O626      0.71926      .   S
    C200   O626      0.71926      .   S
    C202   O627      0.71160      .   S
    C212   O627      0.71160      .   S
    C203   O628      0.71891      .   S
    C201   O628      0.71891      .   S
    C203   O629      0.71116      .   S
    C213   O629      0.71116      .   S
    C75    O630      0.54551      .   S
    C213   O630      0.54551      .   S
    C74    O631      0.54551      .   S
    C212   O631      0.54551      .   S
    C147   O632      0.69856      .   S
    C145   O632      0.69856      .   S
    C147   O633      0.69889      .   S
    C149   O633      0.69889      .   S
    C146   O634      0.69850      .   S
    C144   O634      0.69850      .   S
    C146   O635      0.69882      .   S
    C148   O635      0.69882      .   S
    C201   O636      0.70702      .   S
    C207   O636      0.70702      .   S
    C200   O637      0.70703      .   S
    C206   O637      0.70703      .   S
    C33    O638      0.54515      .   S
    C145   O638      0.54515      .   S
    C32    O639      0.54515      .   S
    C144   O639      0.54515      .   S
    C36    O640      0.54556      .   S
    C148   O640      0.54556      .   S
    C37    O641      0.54556      .   S
    C149   O641      0.54556      .   S
    C212   O642      0.68745      .   S
    C210   O642      0.68745      .   S
    C213   O643      0.68800      .   S
    C211   O643      0.68800      .   S
    C125   O644      0.54488      .   S
    C21    O644      0.54488      .   S
    C125   O645      0.69274      .   S
    C115   O645      0.69274      .   S
    C124   O646      0.54489      .   S
    C20    O646      0.54489      .   S
    C124   O647      0.69274      .   S
    C114   O647      0.69274      .   S
    C117   O648      0.54321      .   S
    C17    O648      0.54321      .   S
    C117   O649      0.71092      .   S
    C115   O649      0.71092      .   S
    C116   O650      0.54321      .   S
    C16    O650      0.54321      .   S
    C116   O651      0.71092      .   S
    C114   O651      0.71092      .   S
    C145   O652      0.69798      .   S
    C143   O652      0.69798      .   S
    C144   O653      0.69798      .   S
    C142   O653      0.69798      .   S
    C148   O654      0.69826      .   S
    C150   O654      0.69826      .   S
    C149   O655      0.69826      .   S
    C151   O655      0.69826      .   S
    C114   O656      0.74648      .   S
    C112   O656      0.74648      .   S
    C115   O657      0.74648      .   S
    C113   O657      0.74648      .   S
    C206   O658      0.54491      .   S
    C70    O658      0.54491      .   S
    C206   O659      0.69254      .   S
    C208   O659      0.69254      .   S
    C207   O660      0.54492      .   S
    C71    O660      0.54492      .   S
    C207   O661      0.69235      .   S
    C209   O661      0.69235      .   S
    C210   O662      0.54470      .   S
    C72    O662      0.54470      .   S
    C210   O663      0.71121      .   S
    C208   O663      0.71121      .   S
    C211   O664      0.54445      .   S
    C73    O664      0.54445      .   S
    C211   O665      0.71081      .   S
    C209   O665      0.71081      .   S
    C143   O666      0.54453      .   S
    C31    O666      0.54453      .   S
    C143   O667      0.69988      .   S
    C141   O667      0.69988      .   S
    C142   O668      0.54453      .   S
    C30    O668      0.54453      .   S
    C142   O669      0.69988      .   S
    C140   O669      0.69988      .   S
    C151   O670      0.54543      .   S
    C39    O670      0.54543      .   S
    C151   O671      0.69991      .   S
    C141   O671      0.69991      .   S
    C150   O672      0.54544      .   S
    C38    O672      0.54544      .   S
    C150   O673      0.69991      .   S
    C140   O673      0.69991      .   S
    C209   O674      0.74733      .   S
    C215   O674      0.74733      .   S
    C208   O675      0.74700      .   S
    C214   O675      0.74700      .   S
    C112   O676      0.63489      .   S
    C274   O676      0.63489      .   S
    C112   O677      0.64250      .   S
    C272   O677      0.64250      .   S
    C113   O678      0.63490      .   S
    C275   O678      0.63490      .   S
    C113   O679      0.64251      .   S
    C273   O679      0.64251      .   S
    C140   O680      0.76256      .   S
    C138   O680      0.76256      .   S
    C141   O681      0.76256      .   S
    C139   O681      0.76256      .   S
    C275   O682      1.00014      .   S
    C13    O682      1.00014      .   S
    C274   O683      1.00014      .   S
    C12    O683      1.00014      .   S
    C272   O684      0.97202      .   S
    C2     O684      0.97202      .   S
    C273   O685      0.97202      .   S
    C3     O685      0.97202      .   S
    C215   O686      0.64117      .   S
    C305   O686      0.64117      .   S
    C215   O687      0.63675      .   S
    C307   O687      0.63675      .   S
    C214   O688      0.64118      .   S
    C304   O688      0.64118      .   S
    C214   O689      0.63672      .   S
    C306   O689      0.63672      .   S
    C139   O690      0.55321      .   S
    C29    O690      0.55321      .   S
    C139   O691      0.77028      .   S
    C137   O691      0.77028      .   S
    C139   O692      0.70944      .   S
    C281   O692      0.70944      .   S
    C138   O693      0.55320      .   S
    C28    O693      0.55320      .   S
    C138   O694      0.77029      .   S
    C136   O694      0.77029      .   S
    C138   O695      0.70945      .   S
    C280   O695      0.70945      .   S
    C285   O696      1.02737  1_655   S
    C12    O696      1.02737      .   S
    C285   O697      0.62646      .   S
    C137   O697      0.62646      .   S
    C284   O698      1.02760      .   S
    C13    O698      1.02760      .   S
    C284   O699      0.62646      .   S
    C136   O699      0.62646      .   S
    C3     O700      1.02005      .   S
    C325   O700      1.02005      .   S
    C3     O701      0.96692      .   S
    C281   O701      0.96692      .   S
    C2     O702      1.02005      .   S
    C324   O702      1.02005      .   S
    C2     O703      0.96692      .   S
    C280   O703      0.96692      .   S
    C280   O704      1.01742  1_556   S
    C0     O704      1.01742      .   S
    C281   O705      1.01742  1_556   S
    C1     O705      1.01742      .   S
    C282   O706      1.08592      .   S
    C0     O706      1.08592      .   S
    C283   O707      1.08592      .   S
    C1     O707      1.08592      .   S
    C294   O708      1.01595      .   S
    C4     O708      1.01595      .   S
    C295   O709      1.01621      .   S
    C5     O709      1.01621      .   S
    C296   O710      1.08609      .   S
    C4     O710      1.08609      .   S
    C297   O711      1.08609      .   S
    C5     O711      1.08609      .   S
    C308   O712      1.01618      .   S
    C8     O712      1.01618      .   S
    C309   O713      1.01604      .   S
    C9     O713      1.01604      .   S
    C310   O714      1.08587      .   S
    C8     O714      1.08587      .   S
    C311   O715      1.08585      .   S
    C9     O715      1.08585      .   S
    C322   O716      1.01746  1_554   S
    C12    O716      1.01746      .   S
    C323   O717      1.01746  1_554   S
    C13    O717      1.01746      .   S
    C324   O718      1.08579      .   S
    C12    O718      1.08579      .   S
    C325   O719      1.08579      .   S
    C13    O719      1.08579      .   S
