# CIF file generated by openbabel 2.4.90, see http://openbabel.sf.net
data_I
_chemical_name_common ''
_cell_length_a 20.636
_cell_length_b 15.499
_cell_length_c 23.722
_cell_angle_alpha 89.798
_cell_angle_beta 89.984
_cell_angle_gamma 90.015
_space_group_name_H-M_alt 'P 1'
_space_group_name_Hall 'P 1'
loop_
    _symmetry_equiv_pos_as_xyz
    x,y,z
loop_
    _atom_site_label
    _atom_site_type_symbol
    _atom_site_fract_x
    _atom_site_fract_y
    _atom_site_fract_z
    _atom_site_occupancy
    N0      N    0.89852   0.85580   0.38476   1.000
    N1      N    0.35367   0.14488   0.88543   1.000
    N2      N    0.87974   0.48623   0.27338   1.000
    N3      N    0.62974   0.01375   0.72663   1.000
    N4      N    0.37202   0.51221   0.77313   1.000
    N5      N    0.87189   0.51220   0.77314   1.000
    N6      N    0.14848   0.64421   0.61526   1.000
    N7      N    0.64849   0.64421   0.61526   1.000
    N8      N    0.39851   0.85580   0.38475   1.000
    N9      N    0.12203   0.98778   0.22689   1.000
    N10     N    0.37973   0.48623   0.27338   1.000
    N11     N    0.85368   0.14488   0.88543   1.000
    N12     N    0.12973   0.01375   0.72664   1.000
    N13     N    0.62204   0.98778   0.22689   1.000
    N14     N    0.60367   0.35511   0.11457   1.000
    N15     N    0.10366   0.35511   0.11457   1.000
    Zr16    Zr   0.70535   0.13719   0.98016   1.000
    O17     O    0.75327   0.14469   0.95773   1.000
    O18     O    0.68298   0.10026   0.90784   1.000
    O19     O    0.68083   0.09243   0.05046   1.000
    O20     O    0.67335   0.20556   0.01442   1.000
    Zr21    Zr   0.30518   0.30355   0.01989   1.000
    O22     O    0.32364   0.36589   0.95006   1.000
    O23     O    0.32950   0.25740   0.98561   1.000
    O24     O    0.31566   0.24866   0.98256   1.000
    O25     O    0.32666   0.35482   0.09282   1.000
    O26     O    0.24316   0.32155   0.04540   1.000
    Zr27    Zr   0.95538   0.36283   0.01980   1.000
    O28     O    0.92337   0.29445   0.98556   1.000
    O29     O    0.00329   0.35533   0.04225   1.000
    O30     O    0.93300   0.39975   0.09214   1.000
    O31     O    0.93081   0.40758   0.94952   1.000
    Zr32    Zr   0.55518   0.19645   0.98014   1.000
    O33     O    0.57364   0.13411   0.04997   1.000
    O34     O    0.49315   0.17844   0.95461   1.000
    O35     O    0.57667   0.14517   0.90721   1.000
    O36     O    0.56567   0.25134   0.01746   1.000
    O37     O    0.57950   0.24260   0.01441   1.000
    Zr38    Zr   0.94734   0.69600   0.51898   1.000
    O39     O    0.92869   0.63342   0.44945   1.000
    O40     O    0.92545   0.64415   0.59201   1.000
    O41     O    0.00923   0.67798   0.54510   1.000
    O42     O    0.92294   0.74243   0.48476   1.000
    O43     O    0.93675   0.75120   0.48173   1.000
    Zr44    Zr   0.05516   0.19645   0.98014   1.000
    O45     O    0.99315   0.17844   0.95461   1.000
    O46     O    0.07665   0.14517   0.90721   1.000
    O47     O    0.07363   0.13411   0.04997   1.000
    O48     O    0.07949   0.24260   0.01441   1.000
    O49     O    0.06566   0.25134   0.01746   1.000
    Zr50    Zr   0.29713   0.63683   0.51897   1.000
    O51     O    0.32905   0.70545   0.48475   1.000
    O52     O    0.32145   0.59186   0.44897   1.000
    O53     O    0.31917   0.59924   0.59142   1.000
    O54     O    0.24910   0.64432   0.54199   1.000
    Zr55    Zr   0.79714   0.63683   0.51890   1.000
    O56     O    0.74911   0.64432   0.54195   1.000
    O57     O    0.82147   0.59186   0.44892   1.000
    O58     O    0.81914   0.59924   0.59138   1.000
    O59     O    0.82906   0.70545   0.48471   1.000
    Zr60    Zr   0.69734   0.80400   0.48103   1.000
    O61     O    0.67549   0.85585   0.40800   1.000
    O62     O    0.68674   0.74880   0.51828   1.000
    O63     O    0.67293   0.75757   0.51525   1.000
    O64     O    0.67869   0.86658   0.55055   1.000
    O65     O    0.75925   0.82202   0.45491   1.000
    Zr66    Zr   0.45536   0.36283   0.01983   1.000
    O67     O    0.43299   0.39975   0.09216   1.000
    O68     O    0.50328   0.35533   0.04226   1.000
    O69     O    0.42336   0.29445   0.98557   1.000
    O70     O    0.43083   0.40758   0.94953   1.000
    Zr71    Zr   0.04715   0.86317   0.48107   1.000
    O72     O    0.06919   0.90076   0.40861   1.000
    O73     O    0.07905   0.79455   0.51528   1.000
    O74     O    0.07146   0.90813   0.55107   1.000
    O75     O    0.99912   0.85569   0.45803   1.000
    Zr76    Zr   0.44733   0.69600   0.51898   1.000
    O77     O    0.43673   0.75121   0.48173   1.000
    O78     O    0.42292   0.74243   0.48476   1.000
    O79     O    0.50923   0.67799   0.54510   1.000
    O80     O    0.42868   0.63342   0.44945   1.000
    O81     O    0.42548   0.64415   0.59201   1.000
    Zr82    Zr   0.80519   0.30355   0.01989   1.000
    O83     O    0.82951   0.25740   0.98561   1.000
    O84     O    0.74317   0.32155   0.04540   1.000
    O85     O    0.81568   0.24866   0.98256   1.000
    O86     O    0.82668   0.35482   0.09282   1.000
    O87     O    0.82361   0.36589   0.95007   1.000
    Zr88    Zr   0.19733   0.80400   0.48100   1.000
    O89     O    0.25924   0.82202   0.45489   1.000
    O90     O    0.17868   0.86658   0.55054   1.000
    O91     O    0.17548   0.85585   0.40798   1.000
    O92     O    0.17292   0.75757   0.51523   1.000
    O93     O    0.18673   0.74880   0.51826   1.000
    Zr94    Zr   0.54716   0.86317   0.48107   1.000
    O95     O    0.49913   0.85569   0.45804   1.000
    O96     O    0.57906   0.79455   0.51528   1.000
    O97     O    0.56920   0.90075   0.40861   1.000
    O98     O    0.57147   0.90813   0.55107   1.000
    Zr99    Zr   0.20534   0.13719   0.98016   1.000
    O100    O    0.25326   0.14468   0.95773   1.000
    O101    O    0.18297   0.10026   0.90784   1.000
    O102    O    0.18081   0.09243   0.05046   1.000
    O103    O    0.17334   0.20556   0.01442   1.000
loop_
    _geom_bond_atom_site_label_1
    _geom_bond_atom_site_label_2
    _geom_bond_distance
    _geom_bond_site_symmetry_2
    _ccdc_geom_bond_type
    Zr16   O17       1.12870      .   S
    N11    O17       2.68933      .   S
    Zr16   O18       1.86842      .   S
    N3     O18       4.63958      .   S
    Zr16   O19       1.87346  1_556   S
    N13    O19       4.64385  1_565   S
    Zr16   O20       1.49178  1_556   S
    N14    O20       3.62263      .   S
    Zr21   O22       1.95211  1_554   S
    N4     O22       4.86688      .   S
    Zr21   O23       1.19525  1_554   S
    N1     O23       2.99451      .   S
    Zr21   O24       1.24898  1_554   S
    N1     O24       2.92184      .   S
    Zr21   O25       1.95728      .   S
    N10    O25       4.87416      .   S
    Zr21   O26       1.44335      .   S
    N15    O26       3.35462      .   S
    Zr27   O28       1.49170  1_554   S
    N11    O28       3.62263      .   S
    Zr27   O29       1.12894  1_655   S
    N15    O29       2.68994      .   S
    Zr27   O30       1.86867      .   S
    N2     O30       4.63989      .   S
    Zr27   O31       1.87358  1_554   S
    N5     O31       4.64442      .   S
    Zr32   O33       1.95240  1_556   S
    N13    O33       4.86732  1_565   S
    Zr32   O34       1.44374      .   S
    N1     O34       3.35516      .   S
    Zr32   O35       1.95730      .   S
    N3     O35       4.87419      .   S
    Zr32   O36       1.24883  1_556   S
    N14    O36       2.92150      .   S
    Zr32   O37       1.19512  1_556   S
    N14    O37       2.99415      .   S
    Zr38   O39       1.95477      .   S
    N2     O39       4.87202      .   S
    Zr38   O40       1.95974      .   S
    N5     O40       4.87846      .   S
    Zr38   O41       1.44652  1_655   S
    N6     O41       3.36129      .   S
    Zr38   O42       1.19446      .   S
    N0     O42       2.99008      .   S
    Zr38   O43       1.24727      .   S
    N0     O43       2.91839      .   S
    Zr44   O45       1.44358  1_455   S
    N11    O45       3.35491      .   S
    Zr44   O46       1.95729      .   S
    N12    O46       4.87414      .   S
    Zr44   O47       1.95241  1_556   S
    N9     O47       4.86734  1_565   S
    Zr44   O48       1.19513  1_556   S
    N15    O48       2.99418      .   S
    Zr44   O49       1.24884  1_556   S
    N15    O49       2.92153      .   S
    Zr50   O51       1.48899      .   S
    N8     O51       3.61528      .   S
    Zr50   O52       1.87167      .   S
    N10    O52       4.63924      .   S
    Zr50   O53       1.86910      .   S
    N4     O53       4.64234      .   S
    Zr50   O54       1.13764      .   S
    N6     O54       2.70747      .   S
    Zr55   O56       1.13796      .   S
    N7     O56       2.70820      .   S
    Zr55   O57       1.87112      .   S
    N2     O57       4.63827      .   S
    Zr55   O58       1.86955      .   S
    N5     O58       4.64295      .   S
    Zr55   O59       1.48861      .   S
    N0     O59       3.61445      .   S
    Zr60   O61       1.95999      .   S
    N13    O61       4.87831      .   S
    Zr60   O62       1.24707      .   S
    N7     O62       2.91820      .   S
    Zr60   O63       1.19422      .   S
    N7     O63       2.98991      .   S
    Zr60   O64       1.95441      .   S
    N3     O64       4.87203  1_545   S
    Zr60   O65       1.44636      .   S
    N0     O65       3.36067      .   S
    Zr66   O67       1.86842      .   S
    N10    O67       4.63944      .   S
    Zr66   O68       1.12897      .   S
    N14    O68       2.68986      .   S
    Zr66   O69       1.49184  1_554   S
    N1     O69       3.62292      .   S
    Zr66   O70       1.87367  1_554   S
    N4     O70       4.64441      .   S
    Zr71   O72       1.86892      .   S
    N9     O72       4.64198      .   S
    Zr71   O73       1.48914      .   S
    N6     O73       3.61559      .   S
    Zr71   O74       1.87167      .   S
    N12    O74       4.63904  1_545   S
    Zr71   O75       1.13790  1_455   S
    N0     O75       2.70803      .   S
    Zr76   O77       1.24720      .   S
    N8     O77       2.91872      .   S
    Zr76   O78       1.19451      .   S
    N8     O78       2.99027      .   S
    Zr76   O79       1.44669      .   S
    N7     O79       3.36157      .   S
    Zr76   O80       1.95468      .   S
    N10    O80       4.87214      .   S
    Zr76   O81       1.95952      .   S
    N4     O81       4.87780      .   S
    Zr82   O83       1.19525  1_554   S
    N11    O83       2.99451      .   S
    Zr82   O84       1.44336      .   S
    N14    O84       3.35462      .   S
    Zr82   O85       1.24898  1_554   S
    N11    O85       2.92183      .   S
    Zr82   O86       1.95729      .   S
    N2     O86       4.87417      .   S
    Zr82   O87       1.95189  1_554   S
    N5     O87       4.86628      .   S
    Zr88   O89       1.44630      .   S
    N8     O89       3.36052      .   S
    Zr88   O90       1.95480      .   S
    N12    O90       4.87230  1_545   S
    Zr88   O91       1.95975      .   S
    N9     O91       4.87788      .   S
    Zr88   O92       1.19439      .   S
    N6     O92       2.99021      .   S
    Zr88   O93       1.24724      .   S
    N6     O93       2.91849      .   S
    Zr94   O95       1.13801      .   S
    N8     O95       2.70854      .   S
    Zr94   O96       1.48915      .   S
    N7     O96       3.61563      .   S
    Zr94   O97       1.86894      .   S
    N13    O97       4.64202      .   S
    Zr94   O98       1.87165      .   S
    N3     O98       4.63899  1_545   S
    Zr99   O100      1.12870      .   S
    N1     O100      2.68933      .   S
    Zr99   O101      1.86840      .   S
    N12    O101      4.63952      .   S
    Zr99   O102      1.87347  1_556   S
    N9     O102      4.64388  1_565   S
    Zr99   O103      1.49178  1_556   S
    N15    O103      3.62264      .   S
