# CIF file generated by openbabel 2.4.90, see http://openbabel.sf.net
data_I
_chemical_name_common ''
_cell_length_a 10.85
_cell_length_b 14.447
_cell_length_c 15.857
_cell_angle_alpha 90
_cell_angle_beta 89.976
_cell_angle_gamma 90.003
_space_group_name_H-M_alt 'P 1'
_space_group_name_Hall 'P 1'
loop_
    _symmetry_equiv_pos_as_xyz
    x,y,z
loop_
    _atom_site_label
    _atom_site_type_symbol
    _atom_site_fract_x
    _atom_site_fract_y
    _atom_site_fract_z
    _atom_site_occupancy
    P0      P    0.76065   0.64479   0.58348   1.000
    P1      P    0.26067   0.64479   0.58351   1.000
    P2      P    0.76059   0.85521   0.91659   1.000
    P3      P    0.26055   0.85523   0.91662   1.000
    P4      P    0.74407   0.35522   0.08328   1.000
    P5      P    0.24423   0.35521   0.08338   1.000
    P6      P    0.74469   0.14478   0.41637   1.000
    P7      P    0.24467   0.14478   0.41649   1.000
    P8      P    0.74465   0.35520   0.41641   1.000
    P9      P    0.24466   0.35522   0.41650   1.000
    P10     P    0.74392   0.14478   0.08315   1.000
    P11     P    0.24420   0.14479   0.08335   1.000
    P12     P    0.76061   0.64478   0.91659   1.000
    P13     P    0.26058   0.64478   0.91662   1.000
    P14     P    0.76065   0.85522   0.58348   1.000
    P15     P    0.26067   0.85521   0.58349   1.000
    H16     H    0.63407   0.74999   0.50210   1.000
    H17     H    0.13410   0.74999   0.50210   1.000
    H18     H    0.59756   0.74999   0.61206   1.000
    H19     H    0.09756   0.74999   0.61206   1.000
    H20     H    0.63413   0.74998   0.99811   1.000
    H21     H    0.13409   0.74999   0.99813   1.000
    H22     H    0.59750   0.74998   0.88819   1.000
    H23     H    0.09747   0.74999   0.88821   1.000
    H24     H    0.87136   0.25001   0.00000   1.000
    H25     H    0.37130   0.25001   0.00000   1.000
    H26     H    0.90680   0.24993   0.11246   1.000
    H27     H    0.40713   0.24999   0.11231   1.000
    H28     H    0.87075   0.24998   0.49811   1.000
    H29     H    0.37078   0.25000   0.49817   1.000
    H30     H    0.90788   0.25002   0.38823   1.000
    H31     H    0.40785   0.25002   0.38829   1.000
    C32     C    0.67346   0.75000   0.56593   1.000
    C33     C    0.17347   0.75000   0.56594   1.000
    C34     C    0.67345   0.74998   0.93424   1.000
    C35     C    0.17342   0.75000   0.93426   1.000
    C36     C    0.83134   0.24999   0.06604   1.000
    C37     C    0.33151   0.25000   0.06601   1.000
    C38     C    0.83174   0.25000   0.43417   1.000
    C39     C    0.33174   0.25001   0.43424   1.000
    O40     O    0.83400   0.65532   0.66613   1.000
    O41     O    0.33402   0.65534   0.66615   1.000
    O42     O    0.67074   0.56232   0.59617   1.000
    O43     O    0.17074   0.56233   0.59618   1.000
    O44     O    0.84429   0.62931   0.50591   1.000
    O45     O    0.34432   0.62931   0.50594   1.000
    O46     O    0.83403   0.84468   0.83394   1.000
    O47     O    0.33394   0.84472   0.83395   1.000
    O48     O    0.67059   0.93758   0.90381   1.000
    O49     O    0.17055   0.93761   0.90387   1.000
    O50     O    0.84415   0.87080   0.99414   1.000
    O51     O    0.34416   0.87081   0.99414   1.000
    O52     O    0.67012   0.34472   0.16573   1.000
    O53     O    0.17050   0.34469   0.16591   1.000
    O54     O    0.83404   0.43762   0.09618   1.000
    O55     O    0.33417   0.43764   0.09618   1.000
    O56     O    0.66106   0.37069   0.00541   1.000
    O57     O    0.16099   0.37069   0.00563   1.000
    O58     O    0.67165   0.15529   0.33358   1.000
    O59     O    0.17152   0.15529   0.33376   1.000
    O60     O    0.83465   0.06234   0.40381   1.000
    O61     O    0.33462   0.06235   0.40384   1.000
    O62     O    0.66072   0.12923   0.49375   1.000
    O63     O    0.16081   0.12923   0.49393   1.000
    O64     O    0.67155   0.34465   0.33366   1.000
    O65     O    0.17149   0.34469   0.33377   1.000
    O66     O    0.83460   0.43766   0.40382   1.000
    O67     O    0.33460   0.43766   0.40385   1.000
    O68     O    0.66076   0.37075   0.49383   1.000
    O69     O    0.16081   0.37076   0.49394   1.000
    O70     O    0.66956   0.15528   0.16543   1.000
    O71     O    0.17044   0.15530   0.16587   1.000
    O72     O    0.83388   0.06240   0.09619   1.000
    O73     O    0.33414   0.06237   0.09618   1.000
    O74     O    0.66126   0.12931   0.00508   1.000
    O75     O    0.16101   0.12931   0.00559   1.000
    O76     O    0.83403   0.65531   0.83394   1.000
    O77     O    0.33398   0.65531   0.83396   1.000
    O78     O    0.67063   0.56238   0.90383   1.000
    O79     O    0.17061   0.56237   0.90387   1.000
    O80     O    0.84419   0.62922   0.99414   1.000
    O81     O    0.34417   0.62923   0.99416   1.000
    O82     O    0.83400   0.84469   0.66612   1.000
    O83     O    0.33403   0.84468   0.66613   1.000
    O84     O    0.67074   0.93768   0.59616   1.000
    O85     O    0.17075   0.93767   0.59618   1.000
    O86     O    0.84429   0.87069   0.50590   1.000
    O87     O    0.34430   0.87069   0.50592   1.000
loop_
    _geom_bond_atom_site_label_1
    _geom_bond_atom_site_label_2
    _geom_bond_distance
    _geom_bond_site_symmetry_2
    _ccdc_geom_bond_type
    H24    C36       1.13342      .   S
    H25    C37       1.13202      .   S
    O74    P10       1.54523      .   S
    O56    P4        1.54496      .   S
    O75    P11       1.54484      .   S
    O57    P5        1.54479      .   S
    C37    P11       1.81193      .   S
    C37    P5        1.81190      .   S
    C37    H27       1.10126      .   S
    C36    P10       1.81196      .   S
    C36    P4        1.81177      .   S
    C36    H26       1.10129      .   S
    P10    O72       1.55323      .   S
    P10    O70       1.54121      .   S
    P4     O54       1.55305      .   S
    P4     O52       1.54117      .   S
    P11    O73       1.55299      .   S
    P11    O71       1.54106      .   S
    P5     O55       1.55296      .   S
    P5     O53       1.54107      .   S
    O58    P6        1.54121      .   S
    O64    P8        1.54106      .   S
    O59    P7        1.54104      .   S
    O65    P9        1.54103      .   S
    H30    C38       1.10120      .   S
    H31    C39       1.10120      .   S
    O60    P6        1.55264      .   S
    O66    P8        1.55273      .   S
    O61    P7        1.55272      .   S
    O67    P9        1.55273      .   S
    P6     C38       1.81180      .   S
    P6     O62       1.54432      .   S
    P8     C38       1.81180      .   S
    P8     O68       1.54438      .   S
    P7     C39       1.81182      .   S
    P7     O63       1.54442      .   S
    P9     C39       1.81181      .   S
    P9     O69       1.54442      .   S
    C38    H28       1.09881      .   S
    C39    H29       1.09881      .   S
    H17    C33       1.09882      .   S
    H16    C32       1.09882      .   S
    O86    P14       1.54459      .   S
    O44    P0        1.54457      .   S
    O87    P15       1.54458      .   S
    O45    P1        1.54455      .   S
    C32    P14       1.81196      .   S
    C32    P0        1.81195      .   S
    C32    H18       1.10124      .   S
    C33    P15       1.81190      .   S
    C33    P1        1.81191      .   S
    C33    H19       1.10123      .   S
    P14    O84       1.55283      .   S
    P14    O82       1.54101      .   S
    P0     O42       1.55285      .   S
    P0     O40       1.54100      .   S
    P15    O85       1.55286      .   S
    P15    O83       1.54100      .   S
    P1     O43       1.55285      .   S
    P1     O41       1.54100      .   S
    O76    P12       1.54096      .   S
    O46    P2        1.54096      .   S
    O47    P3        1.54098      .   S
    O77    P13       1.54095      .   S
    H22    C34       1.10126      .   S
    H23    C35       1.10125      .   S
    O48    P2        1.55277      .   S
    O78    P12       1.55281      .   S
    O79    P13       1.55282      .   S
    O49    P3        1.55281      .   S
    P2     C34       1.81184      .   S
    P2     O50       1.54458      .   S
    P12    C34       1.81183      .   S
    P12    O80       1.54459      .   S
    P3     C35       1.81195      .   S
    P3     O51       1.54462      .   S
    P13    C35       1.81193      .   S
    P13    O81       1.54462      .   S
    C34    H20       1.09879      .   S
    C35    H21       1.09878      .   S
