# CIF file generated by openbabel 2.4.90, see http://openbabel.sf.net
data_I
_chemical_name_common ''
_cell_length_a 10.85
_cell_length_b 14.447
_cell_length_c 15.857
_cell_angle_alpha 90
_cell_angle_beta 89.976
_cell_angle_gamma 90.003
_space_group_name_H-M_alt 'P 1'
_space_group_name_Hall 'P 1'
loop_
    _symmetry_equiv_pos_as_xyz
    x,y,z
loop_
    _atom_site_label
    _atom_site_type_symbol
    _atom_site_fract_x
    _atom_site_fract_y
    _atom_site_fract_z
    _atom_site_occupancy
    O0      O    0.94823   0.43768   0.60375   1.000
    O1      O    0.44826   0.43768   0.60374   1.000
    O2      O    0.94814   0.06235   0.89620   1.000
    O3      O    0.44804   0.06231   0.89615   1.000
    O4      O    0.55684   0.56227   0.10374   1.000
    O5      O    0.05680   0.56224   0.10375   1.000
    O6      O    0.55701   0.93765   0.39623   1.000
    O7      O    0.05703   0.93763   0.39624   1.000
    O8      O    0.55701   0.56235   0.39623   1.000
    O9      O    0.05702   0.56235   0.39623   1.000
    O10     O    0.55681   0.93773   0.10372   1.000
    O11     O    0.05672   0.93780   0.10375   1.000
    O12     O    0.94815   0.43767   0.89621   1.000
    O13     O    0.44810   0.43769   0.89618   1.000
    O14     O    0.94824   0.06232   0.60374   1.000
    O15     O    0.44828   0.06233   0.60373   1.000
