# CIF file generated by openbabel 2.4.90, see http://openbabel.sf.net
data_I
_chemical_name_common ''
_cell_length_a 10.85
_cell_length_b 14.447
_cell_length_c 15.857
_cell_angle_alpha 90
_cell_angle_beta 89.976
_cell_angle_gamma 90.003
_space_group_name_H-M_alt 'P 1'
_space_group_name_Hall 'P 1'
loop_
    _symmetry_equiv_pos_as_xyz
    x,y,z
loop_
    _atom_site_label
    _atom_site_type_symbol
    _atom_site_fract_x
    _atom_site_fract_y
    _atom_site_fract_z
    _atom_site_occupancy
    K0      K    0.00000   0.48765   0.75001   1.000
    K1      K    0.33233   0.00000   0.74997   1.000
    K2      K    0.00000   0.00000   0.75001   1.000
    K3      K    0.17255   0.51232   0.24992   1.000
    K4      K    0.67252   0.51231   0.24988   1.000
    K5      K    0.17254   0.98767   0.24990   1.000
    K6      K    0.67249   0.98770   0.24980   1.000
    V7      V    0.06714   0.46798   0.54718   1.000
    V8      V    0.56717   0.46796   0.54715   1.000
    V9      V    0.06698   0.03205   0.95276   1.000
    V10     V    0.56700   0.03201   0.95259   1.000
    V11     V    0.43792   0.53197   0.04723   1.000
    V12     V    0.00000   0.53195   0.04725   1.000
    V13     V    0.43807   0.96792   0.45279   1.000
    V14     V    0.00000   0.96792   0.45279   1.000
    V15     V    0.43807   0.53209   0.45280   1.000
    V16     V    0.00000   0.53208   0.45279   1.000
    V17     V    0.43792   0.96807   0.04721   1.000
    V18     V    0.00000   0.96810   0.04726   1.000
    V19     V    0.06702   0.46795   0.95276   1.000
    V20     V    0.56702   0.46797   0.95268   1.000
    V21     V    0.06715   0.03201   0.54718   1.000
    V22     V    0.56718   0.03203   0.54713   1.000
    V23     V    0.88402   0.75001   0.75004   1.000
    V24     V    0.38400   0.75002   0.75010   1.000
    V25     V    0.62094   0.24998   0.24998   1.000
    V26     V    0.12106   0.24999   0.25010   1.000
    K27     K    0.33239   0.48766   0.74999   1.000
    O28     O    0.94823   0.43768   0.60375   1.000
    O29     O    0.44826   0.43768   0.60374   1.000
    O30     O    0.94814   0.06235   0.89620   1.000
    O31     O    0.44804   0.06231   0.89615   1.000
    O32     O    0.55684   0.56227   0.10374   1.000
    O33     O    0.05680   0.56224   0.10375   1.000
    O34     O    0.55701   0.93765   0.39623   1.000
    O35     O    0.05703   0.93763   0.39624   1.000
    O36     O    0.55701   0.56235   0.39623   1.000
    O37     O    0.05702   0.56235   0.39623   1.000
    O38     O    0.55681   0.93773   0.10372   1.000
    O39     O    0.05672   0.93780   0.10375   1.000
    O40     O    0.94815   0.43767   0.89621   1.000
    O41     O    0.44810   0.43769   0.89618   1.000
    O42     O    0.94824   0.06232   0.60374   1.000
    O43     O    0.44828   0.06233   0.60373   1.000
    O44     O    0.53146   0.75001   0.75024   1.000
    O45     O    0.03150   0.75001   0.75007   1.000
    O46     O    0.97359   0.25000   0.25091   1.000
    O47     O    0.47350   0.25003   0.25105   1.000
    Ts48    Ts   0.33287   0.94824   0.77796   1.000
    Ts49    Ts   0.27840   0.97920   0.80127   1.000
    Ts50    Ts   0.33290   0.94823   0.72202   1.000
    Ts51    Ts   0.27847   0.97922   0.69870   1.000
    Ts52    Ts   0.17187   0.45645   0.22191   1.000
    Ts53    Ts   0.17220   0.45645   0.27787   1.000
    Ts54    Ts   0.67172   0.45645   0.22183   1.000
    Ts55    Ts   0.67220   0.45643   0.27781   1.000
    Ts56    Ts   0.17220   0.04355   0.27785   1.000
    Ts57    Ts   0.17184   0.04355   0.22189   1.000
    Ts58    Ts   0.67221   0.04356   0.27773   1.000
    Ts59    Ts   0.67151   0.04356   0.22168   1.000
    Ts60    Ts   0.10168   0.49943   0.56351   1.000
    Ts61    Ts   0.09837   0.43557   0.52943   1.000
    Ts62    Ts   0.60169   0.49941   0.56349   1.000
    Ts63    Ts   0.59837   0.43556   0.52938   1.000
    Ts64    Ts   0.10151   0.00057   0.93646   1.000
    Ts65    Ts   0.09833   0.06447   0.97037   1.000
    Ts66    Ts   0.60153   0.00053   0.93633   1.000
    Ts67    Ts   0.59842   0.06445   0.97009   1.000
    Ts68    Ts   0.40334   0.50053   0.06355   1.000
    Ts69    Ts   0.40667   0.56439   0.02954   1.000
    Ts70    Ts   0.94468   0.50051   0.06356   1.000
    Ts71    Ts   0.94806   0.56437   0.02954   1.000
    Ts72    Ts   0.40358   0.99939   0.43647   1.000
    Ts73    Ts   0.40681   0.93551   0.47050   1.000
    Ts74    Ts   0.94488   0.99939   0.43646   1.000
    Ts75    Ts   0.94810   0.93551   0.47049   1.000
    Ts76    Ts   0.40682   0.56449   0.47052   1.000
    Ts77    Ts   0.40358   0.50061   0.43648   1.000
    Ts78    Ts   0.94810   0.56449   0.47050   1.000
    Ts79    Ts   0.94487   0.50060   0.43647   1.000
    Ts80    Ts   0.40667   0.93565   0.02952   1.000
    Ts81    Ts   0.40333   0.99950   0.06353   1.000
    Ts82    Ts   0.94805   0.93566   0.02955   1.000
    Ts83    Ts   0.94463   0.99953   0.06357   1.000
    Ts84    Ts   0.09834   0.43553   0.97038   1.000
    Ts85    Ts   0.10155   0.49942   0.93646   1.000
    Ts86    Ts   0.59837   0.43554   0.97026   1.000
    Ts87    Ts   0.60156   0.49944   0.93640   1.000
    Ts88    Ts   0.09837   0.06442   0.52943   1.000
    Ts89    Ts   0.10168   0.00056   0.56351   1.000
    Ts90    Ts   0.59836   0.06443   0.52934   1.000
    Ts91    Ts   0.60170   0.00058   0.56347   1.000
    Ts92    Ts   0.86735   0.71844   0.72207   1.000
    Ts93    Ts   0.86735   0.78157   0.77801   1.000
    Ts94    Ts   0.86736   0.71844   0.77801   1.000
    Ts95    Ts   0.86735   0.78157   0.72207   1.000
    Ts96    Ts   0.36734   0.71846   0.72212   1.000
    Ts97    Ts   0.36731   0.78159   0.77805   1.000
    Ts98    Ts   0.36732   0.71845   0.77805   1.000
    Ts99    Ts   0.36734   0.78157   0.72211   1.000
    Ts100   Ts   0.63733   0.28156   0.22190   1.000
    Ts101   Ts   0.63784   0.21841   0.27785   1.000
    Ts102   Ts   0.63781   0.28153   0.27788   1.000
    Ts103   Ts   0.63714   0.21841   0.22180   1.000
    Ts104   Ts   0.13754   0.28156   0.22204   1.000
    Ts105   Ts   0.13788   0.21842   0.27799   1.000
    Ts106   Ts   0.13787   0.28156   0.27799   1.000
    Ts107   Ts   0.13752   0.21843   0.22202   1.000
    Ts108   Ts   0.33293   0.54355   0.72204   1.000
    Ts109   Ts   0.33292   0.54354   0.77798   1.000
loop_
    _geom_bond_atom_site_label_1
    _geom_bond_atom_site_label_2
    _geom_bond_distance
    _geom_bond_site_symmetry_2
    _ccdc_geom_bond_type
    V17    O38       1.63101      .   S
    V17    V10       2.25031  1_564   S
    V11    O32       1.63103      .   S
    V11    V20       2.25011  1_554   S
    V12    O33       1.17239      .   S
    V12    V19       1.90468  1_554   S
    V18    O39       1.17192      .   S
    V18    V9        1.90427  1_564   S
    O38    K6        2.73215      .   S
    O32    K4        2.73300      .   S
    O33    K3        2.73341      .   S
    O39    K5        2.73334      .   S
    V25    O47       1.59976      .   S
    V26    O46       1.60010  1_455   S
    O34    V13       1.63098      .   S
    O36    V15       1.63100      .   S
    O37    V16       1.17384      .   S
    O35    V14       1.17387      .   S
    V13    V22       2.24944  1_565   S
    V14    V21       1.90511  1_565   S
    V16    V7        1.90505      .   S
    V15    V8        2.24954      .   S
    V22    O43       1.63102      .   S
    V8     O29       1.63102      .   S
    V21    O42       1.63099  1_455   S
    V7     O28       1.63098  1_455   S
    K27    O41       2.73382      .   S
    K2     O30       2.54971  1_455   S
    K0     O40       2.49223  1_455   S
    V23    O45       1.60015  1_655   S
    V24    O44       1.60001      .   S
    O31    V10       1.63079      .   S
    O41    V20       1.63083      .   S
    O30    V9        1.63082  1_655   S
    O40    V19       1.63085  1_655   S
    O28    K0        2.49331  1_655   S
    O29    K27       2.73457      .   S
    O31    K1        2.78611      .   S
    O34    K6        2.73519      .   S
    O35    K5        2.73417      .   S
    O36    K4        2.73430      .   S
    O37    K3        2.73397      .   S
    O42    K2        2.55078  1_655   S
    O43    K1        2.78718      .   S
    K1     Ts48      0.86962  1_545   S
    K1     Ts49      1.04594  1_545   S
    K1     Ts50      0.86942  1_545   S
    K1     Ts51      1.04534  1_545   S
    K3     Ts52      0.92135      .   S
    K3     Ts53      0.92095      .   S
    K4     Ts54      0.92157      .   S
    K4     Ts55      0.92088      .   S
    K5     Ts56      0.92092  1_565   S
    K5     Ts57      0.92138  1_565   S
    K6     Ts58      0.92055  1_565   S
    K6     Ts59      0.92211  1_565   S
    V7     Ts60      0.64343      .   S
    V7     Ts61      0.64269      .   S
    V8     Ts62      0.64341      .   S
    V8     Ts63      0.64270      .   S
    V9     Ts64      0.64328      .   S
    V9     Ts65      0.64268      .   S
    V10    Ts66      0.64311      .   S
    V10    Ts67      0.64250      .   S
    V11    Ts68      0.64344      .   S
    V11    Ts69      0.64273      .   S
    V12    Ts70      0.79584  1_455   S
    V12    Ts71      0.78482  1_455   S
    V13    Ts72      0.64328      .   S
    V13    Ts73      0.64264      .   S
    V14    Ts74      0.79472  1_455   S
    V14    Ts75      0.78423  1_455   S
    V15    Ts76      0.64265      .   S
    V15    Ts77      0.64329      .   S
    V16    Ts78      0.78427  1_455   S
    V16    Ts79      0.79480  1_455   S
    V17    Ts80      0.64274      .   S
    V17    Ts81      0.64345      .   S
    V18    Ts82      0.78497  1_455   S
    V18    Ts83      0.79623  1_455   S
    V19    Ts84      0.64270      .   S
    V19    Ts85      0.64328      .   S
    V20    Ts86      0.64259      .   S
    V20    Ts87      0.64319      .   S
    V21    Ts88      0.64269      .   S
    V21    Ts89      0.64342      .   S
    V22    Ts90      0.64273      .   S
    V22    Ts91      0.64343      .   S
    V23    Ts92      0.66139      .   S
    V23    Ts93      0.66119      .   S
    V23    Ts94      0.66122      .   S
    V23    Ts95      0.66141      .   S
    V24    Ts96      0.66146      .   S
    V24    Ts97      0.66116      .   S
    V24    Ts98      0.66116      .   S
    V24    Ts99      0.66146      .   S
    V25    Ts100     0.66185      .   S
    V25    Ts101     0.66100      .   S
    V25    Ts102     0.66113      .   S
    V25    Ts103     0.66223      .   S
    V26    Ts104     0.66174      .   S
    V26    Ts105     0.66097      .   S
    V26    Ts106     0.66099      .   S
    V26    Ts107     0.66179      .   S
    K27    Ts108     0.92114      .   S
    K27    Ts109     0.92129      .   S
