# CIF file generated by openbabel 2.4.90, see http://openbabel.sf.net
data_I
_chemical_name_common ''
_cell_length_a 10.85
_cell_length_b 14.447
_cell_length_c 15.857
_cell_angle_alpha 90
_cell_angle_beta 89.976
_cell_angle_gamma 90.003
_space_group_name_H-M_alt 'P 1'
_space_group_name_Hall 'P 1'
loop_
    _symmetry_equiv_pos_as_xyz
    x,y,z
loop_
    _atom_site_label
    _atom_site_type_symbol
    _atom_site_fract_x
    _atom_site_fract_y
    _atom_site_fract_z
    _atom_site_occupancy
    C0      C    0.33239   0.48766   0.74999   1.000
    C1      C    0.00000   0.48765   0.75001   1.000
    C2      C    0.33233   0.00000   0.74997   1.000
    C3      C    0.00000   0.00000   0.75001   1.000
    C4      C    0.17255   0.51232   0.24992   1.000
    C5      C    0.67252   0.51231   0.24988   1.000
    C6      C    0.17254   0.98767   0.24990   1.000
    C7      C    0.67249   0.98770   0.24980   1.000
    C8      C    0.06714   0.46798   0.54718   1.000
    C9      C    0.56717   0.46796   0.54715   1.000
    C10     C    0.06698   0.03205   0.95276   1.000
    C11     C    0.56700   0.03201   0.95259   1.000
    C12     C    0.43792   0.53197   0.04723   1.000
    C13     C    0.00000   0.53195   0.04725   1.000
    C14     C    0.43807   0.96792   0.45279   1.000
    C15     C    0.00000   0.96792   0.45279   1.000
    C16     C    0.43807   0.53209   0.45280   1.000
    C17     C    0.00000   0.53208   0.45279   1.000
    C18     C    0.43792   0.96807   0.04721   1.000
    C19     C    0.00000   0.96810   0.04726   1.000
    C20     C    0.06702   0.46795   0.95276   1.000
    C21     C    0.56702   0.46797   0.95268   1.000
    C22     C    0.06715   0.03201   0.54718   1.000
    C23     C    0.56718   0.03203   0.54713   1.000
    C24     C    0.88402   0.75001   0.75004   1.000
    C25     C    0.38400   0.75002   0.75010   1.000
    C26     C    0.62094   0.24998   0.24998   1.000
    C27     C    0.12106   0.24999   0.25010   1.000
    C28     C    0.76065   0.64479   0.58348   1.000
    C29     C    0.26067   0.64479   0.58351   1.000
    C30     C    0.76059   0.85521   0.91659   1.000
    C31     C    0.26055   0.85523   0.91662   1.000
    C32     C    0.74407   0.35522   0.08328   1.000
    C33     C    0.24423   0.35521   0.08338   1.000
    C34     C    0.74469   0.14478   0.41637   1.000
    C35     C    0.24467   0.14478   0.41649   1.000
    C36     C    0.74465   0.35520   0.41641   1.000
    C37     C    0.24466   0.35522   0.41650   1.000
    C38     C    0.74392   0.14478   0.08315   1.000
    C39     C    0.24420   0.14479   0.08335   1.000
    C40     C    0.76061   0.64478   0.91659   1.000
    C41     C    0.26058   0.64478   0.91662   1.000
    C42     C    0.76065   0.85522   0.58348   1.000
    C43     C    0.26067   0.85521   0.58349   1.000
    C44     C    0.63407   0.74999   0.50210   1.000
    C45     C    0.13410   0.74999   0.50210   1.000
    C46     C    0.59756   0.74999   0.61206   1.000
    C47     C    0.09756   0.74999   0.61206   1.000
    C48     C    0.63413   0.74998   0.99811   1.000
    C49     C    0.13409   0.74999   0.99813   1.000
    C50     C    0.59750   0.74998   0.88819   1.000
    C51     C    0.09747   0.74999   0.88821   1.000
    C52     C    0.87136   0.25001   0.00000   1.000
    C53     C    0.37130   0.25001   0.00000   1.000
    C54     C    0.90680   0.24993   0.11246   1.000
    C55     C    0.40713   0.24999   0.11231   1.000
    C56     C    0.87075   0.24998   0.49811   1.000
    C57     C    0.37078   0.25000   0.49817   1.000
    C58     C    0.90788   0.25002   0.38823   1.000
    C59     C    0.40785   0.25002   0.38829   1.000
    C60     C    0.67346   0.75000   0.56593   1.000
    C61     C    0.17347   0.75000   0.56594   1.000
    C62     C    0.67345   0.74998   0.93424   1.000
    C63     C    0.17342   0.75000   0.93426   1.000
    C64     C    0.83134   0.24999   0.06604   1.000
    C65     C    0.33151   0.25000   0.06601   1.000
    C66     C    0.83174   0.25000   0.43417   1.000
    C67     C    0.33174   0.25001   0.43424   1.000
    C68     C    0.83400   0.65532   0.66613   1.000
    C69     C    0.33402   0.65534   0.66615   1.000
    C70     C    0.67074   0.56232   0.59617   1.000
    C71     C    0.17074   0.56233   0.59618   1.000
    C72     C    0.84429   0.62931   0.50591   1.000
    C73     C    0.34432   0.62931   0.50594   1.000
    C74     C    0.94823   0.43768   0.60375   1.000
    C75     C    0.44826   0.43768   0.60374   1.000
    C76     C    0.83403   0.84468   0.83394   1.000
    C77     C    0.33394   0.84472   0.83395   1.000
    C78     C    0.67059   0.93758   0.90381   1.000
    C79     C    0.17055   0.93761   0.90387   1.000
    C80     C    0.84415   0.87080   0.99414   1.000
    C81     C    0.34416   0.87081   0.99414   1.000
    C82     C    0.94814   0.06235   0.89620   1.000
    C83     C    0.44804   0.06231   0.89615   1.000
    C84     C    0.67012   0.34472   0.16573   1.000
    C85     C    0.17050   0.34469   0.16591   1.000
    C86     C    0.83404   0.43762   0.09618   1.000
    C87     C    0.33417   0.43764   0.09618   1.000
    C88     C    0.66106   0.37069   0.00541   1.000
    C89     C    0.16099   0.37069   0.00563   1.000
    C90     C    0.55684   0.56227   0.10374   1.000
    C91     C    0.05680   0.56224   0.10375   1.000
    C92     C    0.67165   0.15529   0.33358   1.000
    C93     C    0.17152   0.15529   0.33376   1.000
    C94     C    0.83465   0.06234   0.40381   1.000
    C95     C    0.33462   0.06235   0.40384   1.000
    C96     C    0.66072   0.12923   0.49375   1.000
    C97     C    0.16081   0.12923   0.49393   1.000
    C98     C    0.55701   0.93765   0.39623   1.000
    C99     C    0.05703   0.93763   0.39624   1.000
    C100    C    0.67155   0.34465   0.33366   1.000
    C101    C    0.17149   0.34469   0.33377   1.000
    C102    C    0.83460   0.43766   0.40382   1.000
    C103    C    0.33460   0.43766   0.40385   1.000
    C104    C    0.66076   0.37075   0.49383   1.000
    C105    C    0.16081   0.37076   0.49394   1.000
    C106    C    0.55701   0.56235   0.39623   1.000
    C107    C    0.05702   0.56235   0.39623   1.000
    C108    C    0.66956   0.15528   0.16543   1.000
    C109    C    0.17044   0.15530   0.16587   1.000
    C110    C    0.83388   0.06240   0.09619   1.000
    C111    C    0.33414   0.06237   0.09618   1.000
    C112    C    0.66126   0.12931   0.00508   1.000
    C113    C    0.16101   0.12931   0.00559   1.000
    C114    C    0.55681   0.93773   0.10372   1.000
    C115    C    0.05672   0.93780   0.10375   1.000
    C116    C    0.83403   0.65531   0.83394   1.000
    C117    C    0.33398   0.65531   0.83396   1.000
    C118    C    0.67063   0.56238   0.90383   1.000
    C119    C    0.17061   0.56237   0.90387   1.000
    C120    C    0.84419   0.62922   0.99414   1.000
    C121    C    0.34417   0.62923   0.99416   1.000
    C122    C    0.94815   0.43767   0.89621   1.000
    C123    C    0.44810   0.43769   0.89618   1.000
    C124    C    0.83400   0.84469   0.66612   1.000
    C125    C    0.33403   0.84468   0.66613   1.000
    C126    C    0.67074   0.93768   0.59616   1.000
    C127    C    0.17075   0.93767   0.59618   1.000
    C128    C    0.84429   0.87069   0.50590   1.000
    C129    C    0.34430   0.87069   0.50592   1.000
    C130    C    0.94824   0.06232   0.60374   1.000
    C131    C    0.44828   0.06233   0.60373   1.000
    C132    C    0.53146   0.75001   0.75024   1.000
    C133    C    0.03150   0.75001   0.75007   1.000
    C134    C    0.97359   0.25000   0.25091   1.000
    C135    C    0.47350   0.25003   0.25105   1.000
    O136    O    0.85135   0.25000   0.03302   1.000
    O137    O    0.35141   0.25001   0.03300   1.000
    O138    O    0.70259   0.13705   0.04411   1.000
    O139    O    0.61413   0.08066   0.97883   1.000
    O140    O    0.70257   0.36296   0.04435   1.000
    O141    O    0.61404   0.41933   0.97904   1.000
    O142    O    0.20261   0.13705   0.04447   1.000
    O143    O    0.11400   0.08068   0.97917   1.000
    O144    O    0.20261   0.36295   0.04450   1.000
    O145    O    0.11400   0.41932   0.97919   1.000
    O146    O    0.38603   0.01522   0.07169   1.000
    O147    O    0.49737   0.95290   0.07547   1.000
    O148    O    0.50246   0.00004   0.99990   1.000
    O149    O    0.39104   0.91944   0.02068   1.000
    O150    O    0.38604   0.48481   0.07171   1.000
    O151    O    0.49738   0.54712   0.07548   1.000
    O152    O    0.50247   0.49997   0.99995   1.000
    O153    O    0.39105   0.58060   0.02069   1.000
    O154    O    0.91702   0.48479   0.07171   1.000
    O155    O    0.02840   0.54709   0.07550   1.000
    O156    O    0.03351   0.49995   0.00000   1.000
    O157    O    0.92209   0.58058   0.02069   1.000
    O158    O    0.91694   0.01525   0.07173   1.000
    O159    O    0.02836   0.95295   0.07551   1.000
    O160    O    0.03349   0.00007   0.00001   1.000
    O161    O    0.92208   0.91945   0.02070   1.000
    O162    O    0.28786   0.19740   0.07468   1.000
    O163    O    0.28787   0.30261   0.07469   1.000
    O164    O    0.36932   0.25000   0.08916   1.000
    O165    O    0.78763   0.19739   0.07459   1.000
    O166    O    0.78770   0.30260   0.07466   1.000
    O167    O    0.86907   0.24996   0.08925   1.000
    O168    O    0.78890   0.10359   0.08967   1.000
    O169    O    0.70674   0.15003   0.12429   1.000
    O170    O    0.78905   0.39642   0.08973   1.000
    O171    O    0.70709   0.34997   0.12451   1.000
    O172    O    0.28917   0.10358   0.08977   1.000
    O173    O    0.20732   0.15004   0.12461   1.000
    O174    O    0.28920   0.39643   0.08978   1.000
    O175    O    0.20736   0.34995   0.12464   1.000
    O176    O    0.61465   0.96271   0.17676   1.000
    O177    O    0.61468   0.53729   0.17681   1.000
    O178    O    0.11467   0.53728   0.17683   1.000
    O179    O    0.11463   0.96273   0.17683   1.000
    O180    O    0.64525   0.20263   0.20771   1.000
    O181    O    0.64553   0.29735   0.20786   1.000
    O182    O    0.14575   0.20265   0.20799   1.000
    O183    O    0.14578   0.29734   0.20800   1.000
    O184    O    0.54722   0.25000   0.25052   1.000
    O185    O    0.64630   0.20263   0.29178   1.000
    O186    O    0.64624   0.29731   0.29182   1.000
    O187    O    0.04733   0.24999   0.25051   1.000
    O188    O    0.14629   0.20264   0.29193   1.000
    O189    O    0.14628   0.29734   0.29194   1.000
    O190    O    0.70817   0.15003   0.37498   1.000
    O191    O    0.70810   0.34993   0.37504   1.000
    O192    O    0.20809   0.15004   0.37513   1.000
    O193    O    0.20807   0.34995   0.37513   1.000
    O194    O    0.86981   0.25001   0.41120   1.000
    O195    O    0.36979   0.25001   0.41126   1.000
    O196    O    0.49754   0.95278   0.42451   1.000
    O197    O    0.49754   0.54722   0.42452   1.000
    O198    O    0.02851   0.54722   0.42451   1.000
    O199    O    0.02852   0.95278   0.42451   1.000
    O200    O    0.78967   0.10356   0.41009   1.000
    O201    O    0.91733   0.01513   0.42830   1.000
    O202    O    0.78963   0.39643   0.41012   1.000
    O203    O    0.91730   0.48487   0.42831   1.000
    O204    O    0.28964   0.10357   0.41017   1.000
    O205    O    0.38634   0.01513   0.42831   1.000
    O206    O    0.28963   0.39644   0.41017   1.000
    O207    O    0.38634   0.48487   0.42833   1.000
    O208    O    0.78821   0.19739   0.42527   1.000
    O209    O    0.70271   0.13701   0.45506   1.000
    O210    O    0.78820   0.30260   0.42529   1.000
    O211    O    0.70270   0.36298   0.45512   1.000
    O212    O    0.28820   0.19739   0.42537   1.000
    O213    O    0.20274   0.13701   0.45521   1.000
    O214    O    0.28820   0.30261   0.42537   1.000
    O215    O    0.20273   0.36299   0.45522   1.000
    O216    O    0.85124   0.24999   0.46614   1.000
    O217    O    0.35126   0.25001   0.46621   1.000
    O218    O    0.39118   0.91930   0.47935   1.000
    O219    O    0.50262   0.99997   0.49996   1.000
    O220    O    0.92214   0.91930   0.47935   1.000
    O221    O    0.03358   0.99996   0.49998   1.000
    O222    O    0.92215   0.58069   0.47935   1.000
    O223    O    0.03357   0.50003   0.49999   1.000
    O224    O    0.39119   0.58070   0.47937   1.000
    O225    O    0.50262   0.50002   0.49998   1.000
    O226    O    0.61395   0.08063   0.52044   1.000
    O227    O    0.61396   0.41935   0.52049   1.000
    O228    O    0.11398   0.08062   0.52055   1.000
    O229    O    0.11398   0.41937   0.52056   1.000
    O230    O    0.15379   0.74999   0.53402   1.000
    O231    O    0.65376   0.74999   0.53402   1.000
    O232    O    0.80247   0.86295   0.54469   1.000
    O233    O    0.80247   0.63705   0.54470   1.000
    O234    O    0.30248   0.86295   0.54471   1.000
    O235    O    0.30249   0.63705   0.54472   1.000
    O236    O    0.61896   0.98485   0.57165   1.000
    O237    O    0.50773   0.04718   0.57543   1.000
    O238    O    0.61895   0.51514   0.57166   1.000
    O239    O    0.50772   0.45282   0.57545   1.000
    O240    O    0.11895   0.98484   0.57168   1.000
    O241    O    0.00769   0.04717   0.57546   1.000
    O242    O    0.11894   0.51515   0.57168   1.000
    O243    O    0.00768   0.45283   0.57546   1.000
    O244    O    0.71705   0.80261   0.57471   1.000
    O245    O    0.71705   0.69739   0.57471   1.000
    O246    O    0.63551   0.74999   0.58900   1.000
    O247    O    0.21707   0.80260   0.57472   1.000
    O248    O    0.21707   0.69740   0.57472   1.000
    O249    O    0.13551   0.74999   0.58900   1.000
    O250    O    0.71570   0.89645   0.58982   1.000
    O251    O    0.79733   0.84995   0.62480   1.000
    O252    O    0.71569   0.60355   0.58983   1.000
    O253    O    0.79733   0.65005   0.62480   1.000
    O254    O    0.21571   0.89644   0.58984   1.000
    O255    O    0.29735   0.84994   0.62481   1.000
    O256    O    0.21571   0.60356   0.58984   1.000
    O257    O    0.29734   0.65007   0.62483   1.000
    O258    O    0.85901   0.79735   0.70808   1.000
    O259    O    0.85901   0.70266   0.70808   1.000
    O260    O    0.35901   0.79735   0.70812   1.000
    O261    O    0.35901   0.70268   0.70812   1.000
    O262    O    0.39024   0.46267   0.82309   1.000
    O263    O    0.97407   0.03117   0.82311   1.000
    O264    O    0.97408   0.46266   0.82311   1.000
    O265    O    0.95776   0.75001   0.75005   1.000
    O266    O    0.85902   0.70266   0.79199   1.000
    O267    O    0.85902   0.79735   0.79199   1.000
    O268    O    0.45773   0.75001   0.75017   1.000
    O269    O    0.35897   0.79737   0.79203   1.000
    O270    O    0.35899   0.70266   0.79203   1.000
    O271    O    0.79732   0.65005   0.87526   1.000
    O272    O    0.79731   0.84994   0.87526   1.000
    O273    O    0.29725   0.84998   0.87528   1.000
    O274    O    0.29728   0.65004   0.87529   1.000
    O275    O    0.63547   0.74998   0.91121   1.000
    O276    O    0.13544   0.74999   0.91124   1.000
    O277    O    0.50752   0.04716   0.92437   1.000
    O278    O    0.50756   0.45283   0.92443   1.000
    O279    O    0.00756   0.04720   0.92448   1.000
    O280    O    0.00758   0.45281   0.92448   1.000
    O281    O    0.71559   0.89639   0.91020   1.000
    O282    O    0.61879   0.98479   0.92820   1.000
    O283    O    0.71562   0.60358   0.91021   1.000
    O284    O    0.61883   0.51517   0.92826   1.000
    O285    O    0.21559   0.60358   0.91024   1.000
    O286    O    0.11881   0.51516   0.92831   1.000
    O287    O    0.21555   0.89642   0.91025   1.000
    O288    O    0.11877   0.98483   0.92832   1.000
    O289    O    0.71702   0.80259   0.92541   1.000
    O290    O    0.80237   0.86300   0.95536   1.000
    O291    O    0.71703   0.69738   0.92541   1.000
    O292    O    0.80240   0.63700   0.95536   1.000
    O293    O    0.21698   0.80261   0.92544   1.000
    O294    O    0.30236   0.86302   0.95538   1.000
    O295    O    0.21700   0.69739   0.92544   1.000
    O296    O    0.30238   0.63700   0.95539   1.000
    O297    O    0.65379   0.74998   0.96617   1.000
    O298    O    0.15375   0.74999   0.96619   1.000
    O299    O    0.33320   0.57150   0.70807   1.000
    O300    O    0.97411   0.46267   0.67688   1.000
    O301    O    0.39033   0.46267   0.67687   1.000
    O302    O    0.33314   0.92236   0.79196   1.000
    O303    O    0.25144   0.96881   0.82692   1.000
    O304    O    0.39019   0.03116   0.82306   1.000
    O305    O    0.67132   0.42852   0.20781   1.000
    O306    O    0.17152   0.42851   0.20791   1.000
    O307    O    0.67207   0.07149   0.29169   1.000
    O308    O    0.17203   0.07148   0.29183   1.000
    O309    O    0.61475   0.96267   0.32301   1.000
    O310    O    0.11479   0.96265   0.32307   1.000
    O311    O    0.67204   0.42848   0.29177   1.000
    O312    O    0.17202   0.42851   0.29184   1.000
    O313    O    0.61476   0.53733   0.32306   1.000
    O314    O    0.11478   0.53734   0.32307   1.000
    O315    O    0.67103   0.07149   0.20762   1.000
    O316    O    0.17149   0.07149   0.20788   1.000
    O317    O    0.33318   0.57148   0.79198   1.000
    O318    O    0.33318   0.92234   0.70805   1.000
    O319    O    0.25154   0.96883   0.67307   1.000
    O320    O    0.97412   0.03116   0.67688   1.000
    O321    O    0.39031   0.03117   0.67685   1.000
loop_
    _geom_bond_atom_site_label_1
    _geom_bond_atom_site_label_2
    _geom_bond_distance
    _geom_bond_site_symmetry_2
    _ccdc_geom_bond_type
    C52    O136      0.56671      .   S
    C64    O136      0.56671      .   S
    C53    O137      0.56601      .   S
    C65    O137      0.56601      .   S
    C112   O138      0.77262      .   S
    C38    O138      0.77262      .   S
    C112   O139      0.96374  1_554   S
    C11    O139      0.96374      .   S
    C88    O140      0.77248      .   S
    C32    O140      0.77248      .   S
    C88    O141      0.96389  1_554   S
    C21    O141      0.96389      .   S
    C113   O142      0.77242      .   S
    C39    O142      0.77242      .   S
    C113   O143      0.96402  1_554   S
    C10    O143      0.96402      .   S
    C89    O144      0.77239      .   S
    C33    O144      0.77239      .   S
    C89    O145      0.96405  1_554   S
    C20    O145      0.96405      .   S
    C18    O146      0.96517  1_565   S
    C111   O146      0.96517      .   S
    C18    O147      0.81550      .   S
    C114   O147      0.81550      .   S
    C18    O148      1.12515  1_564   S
    C11    O148      1.12515      .   S
    C18    O149      0.96411      .   S
    C81    O149      0.96411  1_556   S
    C12    O150      0.96517      .   S
    C87    O150      0.96517      .   S
    C12    O151      0.81552      .   S
    C90    O151      0.81552      .   S
    C12    O152      1.12506  1_554   S
    C21    O152      1.12506      .   S
    C12    O153      0.96409      .   S
    C121   O153      0.96409  1_556   S
    C13    O154      1.19376  1_455   S
    C86    O154      1.19376      .   S
    C13    O155      0.58620      .   S
    C91    O155      0.58620      .   S
    C13    O156      0.95234      .   S
    C20    O156      0.95234  1_556   S
    C13    O157      1.17723  1_455   S
    C120   O157      1.17723  1_556   S
    C19    O158      1.19435  1_465   S
    C110   O158      1.19435      .   S
    C19    O159      0.58596      .   S
    C115   O159      0.58596      .   S
    C19    O160      0.95214  1_565   S
    C10    O160      0.95214  1_556   S
    C19    O161      1.17746  1_455   S
    C80    O161      1.17746  1_556   S
    C65    O162      0.90596      .   S
    C39    O162      0.90596      .   S
    C65    O163      0.90595      .   S
    C33    O163      0.90595      .   S
    C65    O164      0.55063      .   S
    C55    O164      0.55063      .   S
    C64    O165      0.90598      .   S
    C38    O165      0.90598      .   S
    C64    O166      0.90589      .   S
    C32    O166      0.90589      .   S
    C64    O167      0.55065      .   S
    C54    O167      0.55065      .   S
    C38    O168      0.77661      .   S
    C110   O168      0.77661      .   S
    C38    O169      0.77061      .   S
    C108   O169      0.77061      .   S
    C32    O170      0.77652      .   S
    C86    O170      0.77652      .   S
    C32    O171      0.77058      .   S
    C84    O171      0.77058      .   S
    C39    O172      0.77650      .   S
    C111   O172      0.77650      .   S
    C39    O173      0.77053      .   S
    C109   O173      0.77053      .   S
    C33    O174      0.77648      .   S
    C87    O174      0.77648      .   S
    C33    O175      0.77053      .   S
    C85    O175      0.77053      .   S
    C114   O176      1.36608      .   S
    C7     O176      1.36608      .   S
    C90    O177      1.36650      .   S
    C5     O177      1.36650      .   S
    C91    O178      1.36671      .   S
    C4     O178      1.36671      .   S
    C115   O179      1.36667      .   S
    C6     O179      1.36667      .   S
    C108   O180      0.99335      .   S
    C26    O180      0.99335      .   S
    C84    O181      0.99278      .   S
    C26    O181      0.99278      .   S
    C109   O182      0.99268      .   S
    C27    O182      0.99268      .   S
    C85    O183      0.99261      .   S
    C27    O183      0.99261      .   S
    C26    O184      0.79988      .   S
    C135   O184      0.79988      .   S
    C26    O185      0.99150      .   S
    C92    O185      0.99150      .   S
    C26    O186      0.99169      .   S
    C100   O186      0.99169      .   S
    C27    O187      0.80005      .   S
    C134   O187      0.80005  1_655   S
    C27    O188      0.99146      .   S
    C93    O188      0.99146      .   S
    C27    O189      0.99149      .   S
    C101   O189      0.99149      .   S
    C92    O190      0.77060      .   S
    C34    O190      0.77060      .   S
    C100   O191      0.77053      .   S
    C36    O191      0.77053      .   S
    C93    O192      0.77052      .   S
    C35    O192      0.77052      .   S
    C101   O193      0.77051      .   S
    C37    O193      0.77051      .   S
    C58    O194      0.55060      .   S
    C66    O194      0.55060      .   S
    C59    O195      0.55060      .   S
    C67    O195      0.55060      .   S
    C98    O196      0.81549      .   S
    C14    O196      0.81549      .   S
    C106   O197      0.81550      .   S
    C16    O197      0.81550      .   S
    C107   O198      0.58692      .   S
    C17    O198      0.58692      .   S
    C99    O199      0.58694      .   S
    C15    O199      0.58694      .   S
    C94    O200      0.77632      .   S
    C34    O200      0.77632      .   S
    C94    O201      1.19207      .   S
    C15    O201      1.19207  1_465   S
    C102   O202      0.77637      .   S
    C36    O202      0.77637      .   S
    C102   O203      1.19220      .   S
    C17    O203      1.19220  1_455   S
    C95    O204      0.77636      .   S
    C35    O204      0.77636      .   S
    C95    O205      0.96492      .   S
    C14    O205      0.96492  1_565   S
    C103   O206      0.77636      .   S
    C37    O206      0.77636      .   S
    C103   O207      0.96494      .   S
    C16    O207      0.96494      .   S
    C34    O208      0.90590      .   S
    C66    O208      0.90590      .   S
    C34    O209      0.77216      .   S
    C96    O209      0.77216      .   S
    C36    O210      0.90590      .   S
    C66    O210      0.90590      .   S
    C36    O211      0.77219      .   S
    C104   O211      0.77219      .   S
    C35    O212      0.90591      .   S
    C67    O212      0.90591      .   S
    C35    O213      0.77221      .   S
    C97    O213      0.77221      .   S
    C37    O214      0.90591      .   S
    C67    O214      0.90591      .   S
    C37    O215      0.77221      .   S
    C105   O215      0.77221      .   S
    C66    O216      0.54941      .   S
    C56    O216      0.54941      .   S
    C67    O217      0.54940      .   S
    C57    O217      0.54940      .   S
    C14    O218      0.96395      .   S
    C129   O218      0.96395      .   S
    C14    O219      1.12472      .   S
    C23    O219      1.12472  1_545   S
    C15    O220      1.17635  1_455   S
    C128   O220      1.17635      .   S
    C15    O221      0.95255      .   S
    C22    O221      0.95255  1_545   S
    C17    O222      1.17641  1_455   S
    C72    O222      1.17641      .   S
    C17    O223      0.95252      .   S
    C8     O223      0.95252      .   S
    C16    O224      0.96397      .   S
    C73    O224      0.96397      .   S
    C16    O225      1.12477      .   S
    C9     O225      1.12477      .   S
    C96    O226      0.96409      .   S
    C23    O226      0.96409      .   S
    C104   O227      0.96405      .   S
    C9     O227      0.96405      .   S
    C97    O228      0.96404      .   S
    C22    O228      0.96404      .   S
    C105   O229      0.96404      .   S
    C8     O229      0.96404      .   S
    C45    O230      0.54941      .   S
    C61    O230      0.54941      .   S
    C44    O231      0.54941      .   S
    C60    O231      0.54941      .   S
    C128   O232      0.77230      .   S
    C42    O232      0.77230      .   S
    C72    O233      0.77229      .   S
    C28    O233      0.77229      .   S
    C129   O234      0.77229      .   S
    C43    O234      0.77229      .   S
    C73    O235      0.77227      .   S
    C29    O235      0.77227      .   S
    C23    O236      0.96515  1_545   S
    C126   O236      0.96515      .   S
    C23    O237      0.81551      .   S
    C131   O237      0.81551      .   S
    C9     O238      0.96512      .   S
    C70    O238      0.96512      .   S
    C9     O239      0.81551      .   S
    C75    O239      0.81551      .   S
    C22    O240      0.96514  1_545   S
    C127   O240      0.96514      .   S
    C22    O241      0.81550      .   S
    C130   O241      0.81550  1_655   S
    C8     O242      0.96515      .   S
    C71    O242      0.96515      .   S
    C8     O243      0.81549      .   S
    C74    O243      0.81549  1_655   S
    C60    O244      0.90598      .   S
    C42    O244      0.90598      .   S
    C60    O245      0.90597      .   S
    C28    O245      0.90597      .   S
    C60    O246      0.55062      .   S
    C46    O246      0.55062      .   S
    C61    O247      0.90595      .   S
    C43    O247      0.90595      .   S
    C61    O248      0.90596      .   S
    C29    O248      0.90596      .   S
    C61    O249      0.55061      .   S
    C47    O249      0.55061      .   S
    C42    O250      0.77642      .   S
    C126   O250      0.77642      .   S
    C42    O251      0.77050      .   S
    C124   O251      0.77050      .   S
    C28    O252      0.77642      .   S
    C70    O252      0.77642      .   S
    C28    O253      0.77050      .   S
    C68    O253      0.77050      .   S
    C43    O254      0.77643      .   S
    C127   O254      0.77643      .   S
    C43    O255      0.77050      .   S
    C125   O255      0.77050      .   S
    C29    O256      0.77642      .   S
    C71    O256      0.77642      .   S
    C29    O257      0.77050      .   S
    C69    O257      0.77050      .   S
    C124   O258      0.99212      .   S
    C24    O258      0.99212      .   S
    C68    O259      0.99208      .   S
    C24    O259      0.99208      .   S
    C125   O260      0.99219      .   S
    C25    O260      0.99219      .   S
    C69    O261      0.99218      .   S
    C25    O261      0.99218      .   S
    C0     O262      1.36691      .   S
    C123   O262      1.36691      .   S
    C3     O263      1.27485  1_455   S
    C82    O263      1.27485      .   S
    C1     O264      1.24611  1_455   S
    C122   O264      1.24611      .   S
    C24    O265      0.80007      .   S
    C133   O265      0.80007  1_455   S
    C24    O266      0.99182      .   S
    C116   O266      0.99182      .   S
    C24    O267      0.99178      .   S
    C76    O267      0.99178      .   S
    C25    O268      0.80000      .   S
    C132   O268      0.80000      .   S
    C25    O269      0.99173      .   S
    C77    O269      0.99173      .   S
    C25    O270      0.99174      .   S
    C117   O270      0.99174      .   S
    C116   O271      0.77048      .   S
    C40    O271      0.77048      .   S
    C76    O272      0.77048      .   S
    C30    O272      0.77048      .   S
    C77    O273      0.77049      .   S
    C31    O273      0.77049      .   S
    C117   O274      0.77047      .   S
    C41    O274      0.77047      .   S
    C50    O275      0.55063      .   S
    C62    O275      0.55063      .   S
    C51    O276      0.55063      .   S
    C63    O276      0.55063      .   S
    C83    O277      0.81539      .   S
    C11    O277      0.81539      .   S
    C123   O278      0.81542      .   S
    C21    O278      0.81542      .   S
    C82    O279      0.81541  1_655   S
    C10    O279      0.81541      .   S
    C122   O280      0.81542  1_655   S
    C20    O280      0.81542      .   S
    C78    O281      0.77639      .   S
    C30    O281      0.77639      .   S
    C78    O282      0.96467      .   S
    C11    O282      0.96467  1_545   S
    C118   O283      0.77641      .   S
    C40    O283      0.77641      .   S
    C118   O284      0.96478      .   S
    C21    O284      0.96478      .   S
    C119   O285      0.77641      .   S
    C41    O285      0.77641      .   S
    C119   O286      0.96491      .   S
    C20    O286      0.96491      .   S
    C79    O287      0.77640      .   S
    C31    O287      0.77640      .   S
    C79    O288      0.96491      .   S
    C10    O288      0.96491  1_545   S
    C30    O289      0.90592      .   S
    C62    O289      0.90592      .   S
    C30    O290      0.77229      .   S
    C80    O290      0.77229      .   S
    C40    O291      0.90592      .   S
    C62    O291      0.90592      .   S
    C40    O292      0.77230      .   S
    C120   O292      0.77230      .   S
    C31    O293      0.90598      .   S
    C63    O293      0.90598      .   S
    C31    O294      0.77231      .   S
    C81    O294      0.77231      .   S
    C41    O295      0.90596      .   S
    C63    O295      0.90596      .   S
    C41    O296      0.77231      .   S
    C121   O296      0.77231      .   S
    C62    O297      0.54940      .   S
    C48    O297      0.54940      .   S
    C63    O298      0.54939      .   S
    C49    O298      0.54939      .   S
    C69    O299      1.38171      .   S
    C0     O299      1.38171      .   S
    C74    O300      1.24666      .   S
    C1     O300      1.24666  1_455   S
    C75    O301      1.36728      .   S
    C0     O301      1.36728      .   S
    C77    O302      1.30444      .   S
    C2     O302      1.30444  1_545   S
    C79    O303      1.56891      .   S
    C2     O303      1.56891  1_545   S
    C83    O304      1.39305      .   S
    C2     O304      1.39305      .   S
    C84    O305      1.38235      .   S
    C5     O305      1.38235      .   S
    C85    O306      1.38203      .   S
    C4     O306      1.38203      .   S
    C92    O307      1.38082      .   S
    C7     O307      1.38082  1_565   S
    C93    O308      1.38138      .   S
    C6     O308      1.38138  1_565   S
    C98    O309      1.36760      .   S
    C7     O309      1.36760      .   S
    C99    O310      1.36708      .   S
    C6     O310      1.36708      .   S
    C100   O311      1.38132      .   S
    C5     O311      1.38132      .   S
    C101   O312      1.38143      .   S
    C4     O312      1.38143      .   S
    C106   O313      1.36715      .   S
    C5     O313      1.36715      .   S
    C107   O314      1.36698      .   S
    C4     O314      1.36698      .   S
    C108   O315      1.38316      .   S
    C7     O315      1.38316  1_565   S
    C109   O316      1.38207      .   S
    C6     O316      1.38207  1_565   S
    C117   O317      1.38193      .   S
    C0     O317      1.38193      .   S
    C125   O318      1.30413      .   S
    C2     O318      1.30413  1_545   S
    C127   O319      1.56801      .   S
    C2     O319      1.56801  1_545   S
    C130   O320      1.27539      .   S
    C3     O320      1.27539  1_455   S
    C131   O321      1.39359      .   S
    C2     O321      1.39359      .   S
