# CIF file generated by openbabel 2.4.90, see http://openbabel.sf.net
data_I
_chemical_name_common ''
_cell_length_a 10.85
_cell_length_b 14.447
_cell_length_c 15.857
_cell_angle_alpha 90
_cell_angle_beta 89.976
_cell_angle_gamma 90.003
_space_group_name_H-M_alt 'P 1'
_space_group_name_Hall 'P 1'
loop_
    _symmetry_equiv_pos_as_xyz
    x,y,z
loop_
    _atom_site_label
    _atom_site_type_symbol
    _atom_site_fract_x
    _atom_site_fract_y
    _atom_site_fract_z
    _atom_site_occupancy
    Zr0     Zr   0.33239   0.48766   0.74999   1.000
    Zr1     Zr   0.00000   0.48765   0.75001   1.000
    Zr2     Zr   0.33233   0.00000   0.74997   1.000
    Zr3     Zr   0.00000   0.00000   0.75001   1.000
    Zr4     Zr   0.17255   0.51232   0.24992   1.000
    Zr5     Zr   0.67252   0.51231   0.24988   1.000
    Zr6     Zr   0.17254   0.98767   0.24990   1.000
    Zr7     Zr   0.67249   0.98770   0.24980   1.000
    Zr8     Zr   0.06714   0.46798   0.54718   1.000
    Zr9     Zr   0.56717   0.46796   0.54715   1.000
    Zr10    Zr   0.06698   0.03205   0.95276   1.000
    Zr11    Zr   0.56700   0.03201   0.95259   1.000
    Zr12    Zr   0.43792   0.53197   0.04723   1.000
    Zr13    Zr   0.00000   0.53195   0.04725   1.000
    Zr14    Zr   0.43807   0.96792   0.45279   1.000
    Zr15    Zr   0.00000   0.96792   0.45279   1.000
    Zr16    Zr   0.43807   0.53209   0.45280   1.000
    Zr17    Zr   0.00000   0.53208   0.45279   1.000
    Zr18    Zr   0.43792   0.96807   0.04721   1.000
    Zr19    Zr   0.00000   0.96810   0.04726   1.000
    Zr20    Zr   0.06702   0.46795   0.95276   1.000
    Zr21    Zr   0.56702   0.46797   0.95268   1.000
    Zr22    Zr   0.06715   0.03201   0.54718   1.000
    Zr23    Zr   0.56718   0.03203   0.54713   1.000
    Zr24    Zr   0.88402   0.75001   0.75004   1.000
    Zr25    Zr   0.38400   0.75002   0.75010   1.000
    Zr26    Zr   0.62094   0.24998   0.24998   1.000
    Zr27    Zr   0.12106   0.24999   0.25010   1.000
    Zr28    Zr   0.94823   0.43768   0.60375   1.000
    Zr29    Zr   0.44826   0.43768   0.60374   1.000
    Zr30    Zr   0.94814   0.06235   0.89620   1.000
    Zr31    Zr   0.44804   0.06231   0.89615   1.000
    Zr32    Zr   0.55684   0.56227   0.10374   1.000
    Zr33    Zr   0.05680   0.56224   0.10375   1.000
    Zr34    Zr   0.55701   0.93765   0.39623   1.000
    Zr35    Zr   0.05703   0.93763   0.39624   1.000
    Zr36    Zr   0.55701   0.56235   0.39623   1.000
    Zr37    Zr   0.05702   0.56235   0.39623   1.000
    Zr38    Zr   0.55681   0.93773   0.10372   1.000
    Zr39    Zr   0.05672   0.93780   0.10375   1.000
    Zr40    Zr   0.94815   0.43767   0.89621   1.000
    Zr41    Zr   0.44810   0.43769   0.89618   1.000
    Zr42    Zr   0.94824   0.06232   0.60374   1.000
    Zr43    Zr   0.44828   0.06233   0.60373   1.000
    Zr44    Zr   0.53146   0.75001   0.75024   1.000
    Zr45    Zr   0.03150   0.75001   0.75007   1.000
    Zr46    Zr   0.97359   0.25000   0.25091   1.000
    Zr47    Zr   0.47350   0.25003   0.25105   1.000
    O48     O    0.49737   0.95290   0.07547   1.000
    O49     O    0.50246   0.00004   0.99990   1.000
    O50     O    0.49738   0.54712   0.07548   1.000
    O51     O    0.50247   0.49997   0.99995   1.000
    O52     O    0.02840   0.54709   0.07550   1.000
    O53     O    0.03351   0.49995   0.00000   1.000
    O54     O    0.02836   0.95295   0.07551   1.000
    O55     O    0.03349   0.00007   0.00001   1.000
    O56     O    0.61465   0.96271   0.17676   1.000
    O57     O    0.61468   0.53729   0.17681   1.000
    O58     O    0.11467   0.53728   0.17683   1.000
    O59     O    0.11463   0.96273   0.17683   1.000
    O60     O    0.54722   0.25000   0.25052   1.000
    O61     O    0.04733   0.24999   0.25051   1.000
    O62     O    0.49754   0.95278   0.42451   1.000
    O63     O    0.49754   0.54722   0.42452   1.000
    O64     O    0.02851   0.54722   0.42451   1.000
    O65     O    0.02852   0.95278   0.42451   1.000
    O66     O    0.50262   0.99997   0.49996   1.000
    O67     O    0.03358   0.99996   0.49998   1.000
    O68     O    0.03357   0.50003   0.49999   1.000
    O69     O    0.50262   0.50002   0.49998   1.000
    O70     O    0.50773   0.04718   0.57543   1.000
    O71     O    0.50772   0.45282   0.57545   1.000
    O72     O    0.00769   0.04717   0.57546   1.000
    O73     O    0.00768   0.45283   0.57546   1.000
    O74     O    0.39024   0.46267   0.82309   1.000
    O75     O    0.97407   0.03117   0.82311   1.000
    O76     O    0.97408   0.46266   0.82311   1.000
    O77     O    0.95776   0.75001   0.75005   1.000
    O78     O    0.45773   0.75001   0.75017   1.000
    O79     O    0.50752   0.04716   0.92437   1.000
    O80     O    0.50756   0.45283   0.92443   1.000
    O81     O    0.00756   0.04720   0.92448   1.000
    O82     O    0.00758   0.45281   0.92448   1.000
    O83     O    0.97411   0.46267   0.67688   1.000
    O84     O    0.39033   0.46267   0.67687   1.000
    O85     O    0.39019   0.03116   0.82306   1.000
    O86     O    0.61475   0.96267   0.32301   1.000
    O87     O    0.11479   0.96265   0.32307   1.000
    O88     O    0.61476   0.53733   0.32306   1.000
    O89     O    0.11478   0.53734   0.32307   1.000
    O90     O    0.97412   0.03116   0.67688   1.000
    O91     O    0.39031   0.03117   0.67685   1.000
    N92     N    0.26669   0.25000   0.41971   1.000
    O93     O    0.19033   0.33469   0.47013   1.000
    O94     O    0.20649   0.22632   0.35582   1.000
    O95     O    0.21936   0.16074   0.35577   1.000
    O96     O    0.19033   0.16531   0.47013   1.000
    O97     O    0.32651   0.13257   0.42401   1.000
    O98     O    0.20648   0.27367   0.35582   1.000
    O99     O    0.21935   0.33925   0.35578   1.000
    O100    O    0.32651   0.36744   0.42402   1.000
    N101    N    0.73859   0.75000   0.58031   1.000
    O102    O    0.79880   0.72633   0.64420   1.000
    O103    O    0.67877   0.86743   0.57598   1.000
    O104    O    0.83037   0.66535   0.52983   1.000
    O105    O    0.79880   0.77367   0.64420   1.000
    O106    O    0.67877   0.63257   0.57599   1.000
    O107    O    0.83036   0.83465   0.52983   1.000
    N108    N    0.23850   0.75000   0.91980   1.000
    O109    O    0.31477   0.83472   0.97024   1.000
    O110    O    0.24497   0.85940   0.87336   1.000
    O111    O    0.17863   0.86742   0.92406   1.000
    O112    O    0.31477   0.66530   0.97024   1.000
    O113    O    0.29874   0.72633   0.85591   1.000
    O114    O    0.28584   0.66074   0.85589   1.000
    O115    O    0.29874   0.77369   0.85591   1.000
    O116    O    0.28582   0.83618   0.85588   1.000
    O117    O    0.17866   0.63258   0.92406   1.000
    N118    N    0.23860   0.75000   0.58033   1.000
    O119    O    0.31490   0.66535   0.52985   1.000
    O120    O    0.31489   0.83465   0.52984   1.000
    O121    O    0.29881   0.77367   0.64422   1.000
    O122    O    0.28589   0.83617   0.64419   1.000
    O123    O    0.17878   0.86742   0.57600   1.000
    O124    O    0.24507   0.85942   0.62670   1.000
    O125    O    0.29880   0.72634   0.64423   1.000
    O126    O    0.28590   0.66075   0.64420   1.000
    O127    O    0.17877   0.63258   0.57600   1.000
    N128    N    0.26633   0.25000   0.08004   1.000
    O129    O    0.32619   0.36740   0.07587   1.000
    O130    O    0.20605   0.27367   0.14402   1.000
    O131    O    0.21893   0.33925   0.14397   1.000
    O132    O    0.19016   0.16534   0.02960   1.000
    O133    O    0.19017   0.33466   0.02962   1.000
    O134    O    0.32618   0.13261   0.07587   1.000
    O135    O    0.20604   0.22632   0.14401   1.000
    O136    O    0.21891   0.16074   0.14396   1.000
    N137    N    0.73854   0.74999   0.91977   1.000
    O138    O    0.83031   0.66529   0.97023   1.000
    O139    O    0.83031   0.83472   0.97023   1.000
    O140    O    0.67867   0.86739   0.92399   1.000
    O141    O    0.79878   0.72632   0.85588   1.000
    O142    O    0.67868   0.63258   0.92401   1.000
    O143    O    0.79878   0.77367   0.85588   1.000
    N144    N    0.76613   0.25000   0.07990   1.000
    O145    O    0.69008   0.33466   0.02947   1.000
    O146    O    0.70583   0.27367   0.14388   1.000
    O147    O    0.71872   0.33926   0.14386   1.000
    O148    O    0.84157   0.36739   0.07581   1.000
    O149    O    0.70569   0.22631   0.14381   1.000
    O150    O    0.71858   0.16074   0.14376   1.000
    O151    O    0.84153   0.13262   0.07582   1.000
    O152    O    0.69013   0.16533   0.02937   1.000
    N153    N    0.76669   0.24999   0.41961   1.000
    O154    O    0.84201   0.13256   0.42396   1.000
    O155    O    0.70647   0.27365   0.35572   1.000
    O156    O    0.71937   0.33924   0.35569   1.000
    O157    O    0.84200   0.36743   0.42396   1.000
    O158    O    0.69032   0.16531   0.47003   1.000
    O159    O    0.69033   0.33467   0.47005   1.000
    O160    O    0.70649   0.22631   0.35570   1.000
    O161    O    0.71938   0.16074   0.35565   1.000
loop_
    _geom_bond_atom_site_label_1
    _geom_bond_atom_site_label_2
    _geom_bond_distance
    _geom_bond_site_symmetry_2
    _ccdc_geom_bond_type
    Zr18   O48       0.81550      .   S
    Zr38   O48       0.81550      .   S
    Zr18   O49       1.12515  1_564   S
    Zr11   O49       1.12515      .   S
    Zr12   O50       0.81552      .   S
    Zr32   O50       0.81552      .   S
    Zr12   O51       1.12506  1_554   S
    Zr21   O51       1.12506      .   S
    Zr13   O52       0.58620      .   S
    Zr33   O52       0.58620      .   S
    Zr13   O53       0.95234      .   S
    Zr20   O53       0.95234  1_556   S
    Zr19   O54       0.58596      .   S
    Zr39   O54       0.58596      .   S
    Zr19   O55       0.95214  1_565   S
    Zr10   O55       0.95214  1_556   S
    Zr38   O56       1.36608      .   S
    Zr7    O56       1.36608      .   S
    Zr32   O57       1.36650      .   S
    Zr5    O57       1.36650      .   S
    Zr33   O58       1.36671      .   S
    Zr4    O58       1.36671      .   S
    Zr39   O59       1.36667      .   S
    Zr6    O59       1.36667      .   S
    Zr26   O60       0.79988      .   S
    Zr47   O60       0.79988      .   S
    Zr27   O61       0.80005      .   S
    Zr46   O61       0.80005  1_655   S
    Zr34   O62       0.81549      .   S
    Zr14   O62       0.81549      .   S
    Zr36   O63       0.81550      .   S
    Zr16   O63       0.81550      .   S
    Zr37   O64       0.58692      .   S
    Zr17   O64       0.58692      .   S
    Zr35   O65       0.58694      .   S
    Zr15   O65       0.58694      .   S
    Zr14   O66       1.12472      .   S
    Zr23   O66       1.12472  1_545   S
    Zr15   O67       0.95255      .   S
    Zr22   O67       0.95255  1_545   S
    Zr17   O68       0.95252      .   S
    Zr8    O68       0.95252      .   S
    Zr16   O69       1.12477      .   S
    Zr9    O69       1.12477      .   S
    Zr23   O70       0.81551      .   S
    Zr43   O70       0.81551      .   S
    Zr9    O71       0.81551      .   S
    Zr29   O71       0.81551      .   S
    Zr22   O72       0.81550      .   S
    Zr42   O72       0.81550  1_655   S
    Zr8    O73       0.81549      .   S
    Zr28   O73       0.81549  1_655   S
    Zr0    O74       1.36691      .   S
    Zr41   O74       1.36691      .   S
    Zr3    O75       1.27485  1_455   S
    Zr30   O75       1.27485      .   S
    Zr1    O76       1.24611  1_455   S
    Zr40   O76       1.24611      .   S
    Zr24   O77       0.80007      .   S
    Zr45   O77       0.80007  1_455   S
    Zr25   O78       0.80000      .   S
    Zr44   O78       0.80000      .   S
    Zr31   O79       0.81539      .   S
    Zr11   O79       0.81539      .   S
    Zr41   O80       0.81542      .   S
    Zr21   O80       0.81542      .   S
    Zr30   O81       0.81541  1_655   S
    Zr10   O81       0.81541      .   S
    Zr40   O82       0.81542  1_655   S
    Zr20   O82       0.81542      .   S
    Zr28   O83       1.24666      .   S
    Zr1    O83       1.24666  1_455   S
    Zr29   O84       1.36728      .   S
    Zr0    O84       1.36728      .   S
    Zr31   O85       1.39305      .   S
    Zr2    O85       1.39305      .   S
    Zr34   O86       1.36760      .   S
    Zr7    O86       1.36760      .   S
    Zr35   O87       1.36708      .   S
    Zr6    O87       1.36708      .   S
    Zr36   O88       1.36715      .   S
    Zr5    O88       1.36715      .   S
    Zr37   O89       1.36698      .   S
    Zr4    O89       1.36698      .   S
    Zr42   O90       1.27539      .   S
    Zr3    O90       1.27539  1_455   S
    Zr43   O91       1.39359      .   S
    Zr2    O91       1.39359      .   S
    N92    O93       1.67988      .   S
    Zr8    O93       2.64313      .   S
    N92    O94       1.25320      .   S
    Zr27   O94       1.94619      .   S
    N92    O95       1.71898      .   S
    Zr6    O95       3.05429  1_565   S
    N92    O96       1.67984      .   S
    Zr22   O96       2.64308      .   S
    N92    O97       1.81785      .   S
    Zr14   O97       2.70781  1_565   S
    N92    O98       1.25317      .   S
    Zr27   O98       1.94622      .   S
    N92    O99       1.71890      .   S
    Zr4    O99       3.05421      .   S
    N92    O100      1.81779      .   S
    Zr16   O100      2.70771      .   S
    N101   O102      1.25320      .   S
    Zr24   O102      1.94681      .   S
    N101   O103      1.81771      .   S
    Zr23   O103      2.70759  1_545   S
    N101   O104      1.76850      .   S
    Zr17   O104      2.93006  1_455   S
    N101   O105      1.25319      .   S
    Zr24   O105      1.94683      .   S
    N101   O106      1.81769      .   S
    Zr9    O106      2.70757      .   S
    N101   O107      1.76843      .   S
    Zr15   O107      2.92992  1_455   S
    N108   O109      1.68016      .   S
    Zr18   O109      2.64341  1_554   S
    N108   O110      1.74505      .   S
    Zr2    O110      2.97503  1_545   S
    N108   O111      1.81768      .   S
    Zr10   O111      2.70765  1_545   S
    N108   O112      1.68013      .   S
    Zr12   O112      2.64336  1_554   S
    N108   O113      1.25294      .   S
    Zr25   O113      1.94592      .   S
    N108   O114      1.71856      .   S
    Zr0    O114      3.05396      .   S
    N108   O115      1.25294      .   S
    Zr25   O115      1.94591      .   S
    N108   O116      1.68539      .   S
    Zr2    O116      2.94543  1_545   S
    N108   O117      1.81763      .   S
    Zr20   O117      2.70753      .   S
    N118   O119      1.67962      .   S
    Zr16   O119      2.64275      .   S
    N118   O120      1.67961      .   S
    Zr14   O120      2.64271      .   S
    N118   O121      1.25329      .   S
    Zr25   O121      1.94714      .   S
    N118   O122      1.68488      .   S
    Zr2    O122      2.94448  1_545   S
    N118   O123      1.81765      .   S
    Zr22   O123      2.70755  1_545   S
    N118   O124      1.74483      .   S
    Zr2    O124      2.97377  1_545   S
    N118   O125      1.25330      .   S
    Zr25   O125      1.94714      .   S
    N118   O126      1.71819      .   S
    Zr0    O126      3.05331      .   S
    N118   O127      1.81764      .   S
    Zr8    O127      2.70754      .   S
    N128   O129      1.81736      .   S
    Zr12   O129      2.70699      .   S
    N128   O130      1.25439      .   S
    Zr27   O130      1.94822      .   S
    N128   O131      1.71894      .   S
    Zr4    O131      3.05392      .   S
    N128   O132      1.67895      .   S
    Zr10   O132      2.64202  1_556   S
    N128   O133      1.67889      .   S
    Zr20   O133      2.64200  1_556   S
    N128   O134      1.81725      .   S
    Zr18   O134      2.70682  1_565   S
    N128   O135      1.25436      .   S
    Zr27   O135      1.94825      .   S
    N128   O136      1.71885      .   S
    Zr6    O136      3.05381  1_565   S
    N137   O138      1.76920      .   S
    Zr13   O138      2.93155  1_454   S
    N137   O139      1.76936      .   S
    Zr19   O139      2.93191  1_454   S
    N137   O140      1.81750      .   S
    Zr11   O140      2.70733  1_545   S
    N137   O141      1.25302      .   S
    Zr24   O141      1.94622      .   S
    N137   O142      1.81748      .   S
    Zr21   O142      2.70727      .   S
    N137   O143      1.25303      .   S
    Zr24   O143      1.94620      .   S
    N144   O145      1.67841      .   S
    Zr21   O145      2.64130  1_556   S
    N144   O146      1.25446      .   S
    Zr26   O146      1.94805      .   S
    N144   O147      1.71914      .   S
    Zr5    O147      3.05420      .   S
    N144   O148      1.88428      .   S
    Zr13   O148      2.96827  1_455   S
    N144   O149      1.25429      .   S
    Zr26   O149      1.94830      .   S
    N144   O150      1.71860      .   S
    Zr7    O150      3.05392  1_565   S
    N144   O151      1.88392      .   S
    Zr19   O151      2.96827  1_465   S
    N144   O152      1.67891      .   S
    Zr11   O152      2.64154  1_556   S
    N153   O154      1.88438      .   S
    Zr15   O154      2.96755  1_465   S
    N153   O155      1.25338      .   S
    Zr26   O155      1.94698      .   S
    N153   O156      1.71870      .   S
    Zr5    O156      3.05394      .   S
    N153   O157      1.88434      .   S
    Zr17   O157      2.96754  1_455   S
    N153   O158      1.67978      .   S
    Zr23   O158      2.64312      .   S
    N153   O159      1.68001      .   S
    Zr9    O159      2.64329      .   S
    N153   O160      1.25355      .   S
    Zr26   O160      1.94681      .   S
    N153   O161      1.71902      .   S
    Zr7    O161      3.05391  1_565   S
