# CIF file generated by openbabel 2.4.90, see http://openbabel.sf.net
data_I
_chemical_name_common ''
_cell_length_a 12.575
_cell_length_b 12.867
_cell_length_c 14.514
_cell_angle_alpha 88.632
_cell_angle_beta 88.664
_cell_angle_gamma 86.105
_space_group_name_H-M_alt 'P 1'
_space_group_name_Hall 'P 1'
loop_
    _symmetry_equiv_pos_as_xyz
    x,y,z
loop_
    _atom_site_label
    _atom_site_type_symbol
    _atom_site_fract_x
    _atom_site_fract_y
    _atom_site_fract_z
    _atom_site_occupancy
    Zn0     Zn   0.62567   0.03152   0.72606   1.000
    Zn1     Zn   0.02767   0.63127   0.22307   1.000
    Zn2     Zn   0.37426   0.96851   0.27379   1.000
    Zn3     Zn   0.38885   0.61374   0.74987   1.000
    Zn4     Zn   0.61134   0.38649   0.25015   1.000
    H5      H    0.17629   0.45389   0.50999   1.000
    H6      H    0.54451   0.82800   0.98969   1.000
    H7      H    0.82789   0.54156   0.49003   1.000
    H8      H    0.45043   0.17540   0.01119   1.000
    Zn9     Zn   0.97219   0.36890   0.77442   1.000
    H10     H    0.00222   0.00000   0.74889   1.000
    H11     H    0.00000   0.01046   0.25347   1.000
    C12     C    0.06305   0.42437   0.59921   1.000
    C13     C    0.29565   0.53943   0.58715   1.000
    C14     C    0.02697   0.15408   0.76612   1.000
    C15     C    0.57292   0.93901   0.90011   1.000
    C16     C    0.46379   0.70783   0.91208   1.000
    C17     C    0.84647   0.00000   0.73415   1.000
    C18     C    0.93928   0.57361   0.39989   1.000
    C19     C    0.70671   0.45849   0.41252   1.000
    C20     C    0.00000   0.84588   0.23397   1.000
    C21     C    0.42481   0.06279   0.10001   1.000
    C22     C    0.53386   0.29412   0.08836   1.000
    C23     C    0.15326   0.01996   0.26720   1.000
    O24     O    0.97784   0.38585   0.62408   1.000
    O25     O    0.10204   0.41763   0.51517   1.000
    O26     O    0.37589   0.59044   0.60478   1.000
    O27     O    0.27671   0.50174   0.50933   1.000
    O28     O    0.07411   0.23699   0.78129   1.000
    O29     O    0.07331   0.06322   0.76159   1.000
    O30     O    0.61091   0.02307   0.87495   1.000
    O31     O    0.57929   0.90218   0.98442   1.000
    O32     O    0.41627   0.62649   0.89452   1.000
    O33     O    0.50014   0.72887   0.99022   1.000
    O34     O    0.76416   0.93194   0.71874   1.000
    O35     O    0.94093   0.93262   0.73802   1.000
    O36     O    0.02358   0.61341   0.37464   1.000
    O37     O    0.90189   0.57815   0.48458   1.000
    O38     O    0.62534   0.40904   0.39489   1.000
    O39     O    0.72729   0.49408   0.49078   1.000
    O40     O    0.92575   0.76308   0.21821   1.000
    O41     O    0.92645   0.93660   0.23938   1.000
    O42     O    0.38846   0.97783   0.12477   1.000
    O43     O    0.41622   0.10100   0.01623   1.000
    O44     O    0.58349   0.37425   0.10560   1.000
    O45     O    0.49528   0.27459   0.01073   1.000
    O46     O    0.23571   0.06788   0.28194   1.000
    O47     O    0.05860   0.06702   0.26511   1.000
    Ts48    Ts   0.58781   0.99430   0.73176   1.000
    Ts49    Ts   0.66231   0.06885   0.73236   1.000
    Ts50    Ts   0.61798   0.04796   0.67975   1.000
    Ts51    Ts   0.04446   0.62329   0.17693   1.000
    Ts52    Ts   0.99197   0.59224   0.22965   1.000
    Ts53    Ts   0.06598   0.66671   0.22977   1.000
    Ts54    Ts   0.38199   0.95207   0.32004   1.000
    Ts55    Ts   0.41185   0.00600   0.26806   1.000
    Ts56    Ts   0.33760   0.93116   0.26750   1.000
    Ts57    Ts   0.33877   0.59519   0.75023   1.000
    Ts58    Ts   0.40715   0.66321   0.74923   1.000
    Ts59    Ts   0.42863   0.57309   0.74984   1.000
    Ts60    Ts   0.66162   0.40483   0.24949   1.000
    Ts61    Ts   0.59265   0.33723   0.25080   1.000
    Ts62    Ts   0.57165   0.42724   0.25033   1.000
    Ts63    Ts   0.00816   0.40784   0.76821   1.000
    Ts64    Ts   0.93391   0.33341   0.76824   1.000
    Ts65    Ts   0.95532   0.37718   0.82078   1.000
    Og66    Og   0.08271   0.44224   0.62210   1.000
    Og67    Og   0.27017   0.53405   0.61296   1.000
    Og68    Og   0.98804   0.15807   0.76233   1.000
    Og69    Og   0.55545   0.91918   0.87715   1.000
    Og70    Og   0.46843   0.73282   0.88621   1.000
    Og71    Og   0.84264   0.03082   0.73822   1.000
    Og72    Og   0.91937   0.55601   0.37697   1.000
    Og73    Og   0.73196   0.46408   0.38658   1.000
    Og74    Og   0.02989   0.84188   0.23766   1.000
    Og75    Og   0.44240   0.08251   0.12295   1.000
    Og76    Og   0.52940   0.26896   0.11415   1.000
    Og77    Og   0.15711   0.98246   0.26277   1.000
loop_
    _geom_bond_atom_site_label_1
    _geom_bond_atom_site_label_2
    _geom_bond_distance
    _geom_bond_site_symmetry_2
    _ccdc_geom_bond_type
    O45    C22       1.27425      .   S
    H8     O43       1.07613      .   S
    O43    C21       1.30481      .   S
    C22    O44       1.27359      .   S
    C21    O42       1.25477  1_545   S
    O44    Zn4       2.14634      .   S
    O42    Zn2       2.16710      .   S
    O40    Zn1       2.05602  1_655   S
    O40    C20       1.48855  1_655   S
    Zn1    O36       2.20612      .   S
    C20    O41       1.44163  1_455   S
    Zn4    O38       2.14050      .   S
    H11    O47       1.08884      .   S
    O47    C23       1.29909      .   S
    C23    O46       1.26659      .   S
    Zn2    O46       2.09280  1_565   S
    O36    C18       1.25186  1_455   S
    O38    C19       1.27491      .   S
    C18    O37       1.30698      .   S
    C19    O39       1.27343      .   S
    O37    H7        1.07140      .   S
    O27    C13       1.27365      .   S
    H5     O25       1.07212      .   S
    O25    C12       1.30658      .   S
    C13    O26       1.27462      .   S
    C12    O24       1.25282  1_455   S
    O26    Zn3       2.14565      .   S
    O24    Zn9       2.18770      .   S
    O34    Zn0       2.09298  1_565   S
    O34    C17       1.42532  1_565   S
    Zn0    O30       2.16552      .   S
    C17    O35       1.42369  1_545   S
    O35    H10       1.21391  1_665   S
    Zn3    O32       2.14738      .   S
    O29    C14       1.27277      .   S
    C14    O28       1.28114      .   S
    Zn9    O28       2.05817  1_655   S
    O30    C15       1.25475  1_545   S
    O32    C16       1.27368      .   S
    C15    O31       1.30396      .   S
    C16    O33       1.27437      .   S
    O31    H6        1.07698      .   S
    Zn0    Ts48      0.70008  1_545   S
    Zn0    Ts49      0.69679      .   S
    Zn0    Ts50      0.70663      .   S
    Zn1    Ts51      0.70525      .   S
    Zn1    Ts52      0.69955  1_455   S
    Zn1    Ts53      0.69537      .   S
    Zn2    Ts54      0.70588      .   S
    Zn2    Ts55      0.70012  1_565   S
    Zn2    Ts56      0.69712      .   S
    Zn3    Ts57      0.68844      .   S
    Zn3    Ts58      0.69108      .   S
    Zn3    Ts59      0.69871      .   S
    Zn4    Ts60      0.68954      .   S
    Zn4    Ts61      0.69053      .   S
    Zn4    Ts62      0.69894      .   S
    Zn9    Ts63      0.70030  1_655   S
    Zn9    Ts64      0.69442      .   S
    Zn9    Ts65      0.70898      .   S
    C12    Og66      0.48943      .   S
    C13    Og67      0.49384      .   S
    C14    Og68      0.49292  1_455   S
    C15    Og69      0.48931      .   S
    C16    Og70      0.49354      .   S
    C17    Og71      0.40184      .   S
    C18    Og72      0.48973      .   S
    C19    Og73      0.49395      .   S
    C20    Og74      0.38076      .   S
    C21    Og75      0.48919      .   S
    C22    Og76      0.49369      .   S
    C23    Og77      0.48721  1_545   S
