# CIF file generated by openbabel 2.4.90, see http://openbabel.sf.net
data_I
_chemical_name_common ''
_cell_length_a 12.575
_cell_length_b 12.867
_cell_length_c 14.514
_cell_angle_alpha 88.632
_cell_angle_beta 88.664
_cell_angle_gamma 86.105
_space_group_name_H-M_alt 'P 1'
_space_group_name_Hall 'P 1'
loop_
    _symmetry_equiv_pos_as_xyz
    x,y,z
loop_
    _atom_site_label
    _atom_site_type_symbol
    _atom_site_fract_x
    _atom_site_fract_y
    _atom_site_fract_z
    _atom_site_occupancy
    C0      C    0.06305   0.42437   0.59921   1.000
    C1      C    0.29565   0.53943   0.58715   1.000
    C2      C    0.02697   0.15408   0.76612   1.000
    C3      C    0.57292   0.93901   0.90011   1.000
    C4      C    0.46379   0.70783   0.91208   1.000
    C5      C    0.84647   0.00000   0.73415   1.000
    C6      C    0.93928   0.57361   0.39989   1.000
    C7      C    0.70671   0.45849   0.41252   1.000
    C8      C    0.00000   0.84588   0.23397   1.000
    C9      C    0.42481   0.06279   0.10001   1.000
    C10     C    0.53386   0.29412   0.08836   1.000
    C11     C    0.15326   0.01996   0.26720   1.000
