# CIF file generated by openbabel 2.4.90, see http://openbabel.sf.net
data_I
_chemical_name_common ''
_cell_length_a 12.575
_cell_length_b 12.867
_cell_length_c 14.514
_cell_angle_alpha 88.632
_cell_angle_beta 88.664
_cell_angle_gamma 86.105
_space_group_name_H-M_alt 'P 1'
_space_group_name_Hall 'P 1'
loop_
    _symmetry_equiv_pos_as_xyz
    x,y,z
loop_
    _atom_site_label
    _atom_site_type_symbol
    _atom_site_fract_x
    _atom_site_fract_y
    _atom_site_fract_z
    _atom_site_occupancy
    N0      N    0.12448   0.56469   0.90553   1.000
    N1      N    0.33639   0.66480   0.24991   1.000
    N2      N    0.66370   0.33540   0.75003   1.000
    N3      N    0.87570   0.43567   0.09297   1.000
    N4      N    0.43690   0.87417   0.59254   1.000
    N5      N    0.56257   0.12630   0.40726   1.000
    Zr6     Zr   0.61190   0.38444   0.25043   1.000
    O7      O    0.52800   0.47032   0.25030   1.000
    Zr8     Zr   0.72079   0.95426   0.82389   1.000
    O9      O    0.65457   0.02275   0.67791   1.000
    Zr10    Zr   0.38819   0.61551   0.74971   1.000
    O11     O    0.47215   0.52979   0.74982   1.000
    Zr12    Zr   0.94657   0.68544   0.33297   1.000
    O13     O    0.01761   0.63872   0.18133   1.000
    Zr14    Zr   0.27797   0.05009   0.17708   1.000
    O15     O    0.34468   0.97955   0.32246   1.000
    Zr16    Zr   0.05823   0.31312   0.66649   1.000
    O17     O    0.98476   0.36080   0.81747   1.000
    O18     O    0.41420   0.70545   0.72576   1.000
    O19     O    0.29661   0.58858   0.77327   1.000
    O20     O    0.60907   0.93129   0.76012   1.000
    O21     O    0.58540   0.29492   0.27430   1.000
    O22     O    0.70379   0.41125   0.22631   1.000
    O23     O    0.07362   0.69946   0.28804   1.000
    O24     O    0.92765   0.59163   0.26453   1.000
    O25     O    0.38986   0.07126   0.24031   1.000
    O26     O    0.07507   0.40754   0.73446   1.000
    O27     O    0.93046   0.29987   0.71145   1.000
    O28     O    0.28287   0.92577   0.21663   1.000
    O29     O    0.71649   0.07770   0.78392   1.000
loop_
    _geom_bond_atom_site_label_1
    _geom_bond_atom_site_label_2
    _geom_bond_distance
    _geom_bond_site_symmetry_2
    _ccdc_geom_bond_type
    Zr6    O7        1.47512      .   S
    N1     O7        3.35386      .   S
    Zr8    O9        2.41925  1_565   S
    N5     O9        4.27753      .   S
    Zr10   O11       1.47404      .   S
    N2     O11       3.35262      .   S
    Zr12   O13       2.42944  1_655   S
    N0     O13       4.30050  1_556   S
    Zr14   O15       2.42234  1_545   S
    N4     O15       4.27709      .   S
    Zr16   O17       2.43418  1_455   S
    N3     O17       4.30652  1_554   S
    Zr10   O18       1.26259      .   S
    N4     O18       2.89671      .   S
    Zr10   O19       1.26228      .   S
    N0     O19       2.88675      .   S
    N4     O20       3.41911      .   S
    Zr8    O20       1.74582      .   S
    Zr6    O21       1.25916      .   S
    N5     O21       2.89346      .   S
    Zr6    O22       1.26745      .   S
    N3     O22       2.89568      .   S
    Zr12   O23       1.73080  1_655   S
    N1     O23       3.33907      .   S
    Zr12   O24       1.61481      .   S
    N3     O24       3.33869      .   S
    N5     O25       3.40975      .   S
    Zr14   O25       1.73785      .   S
    Zr16   O26       1.61124      .   S
    N0     O26       3.33500      .   S
    Zr16   O27       1.73763  1_455   S
    N2     O27       3.38988      .   S
    N1     O28       3.40479      .   S
    Zr14   O28       1.68422  1_545   S
    N2     O29       3.36390      .   S
    Zr8    O29       1.67569  1_565   S
