# CIF file generated by openbabel 2.4.90, see http://openbabel.sf.net
data_I
_chemical_name_common ''
_cell_length_a 12.575
_cell_length_b 12.867
_cell_length_c 14.514
_cell_angle_alpha 88.632
_cell_angle_beta 88.664
_cell_angle_gamma 86.105
_space_group_name_H-M_alt 'P 1'
_space_group_name_Hall 'P 1'
loop_
    _symmetry_equiv_pos_as_xyz
    x,y,z
loop_
    _atom_site_label
    _atom_site_type_symbol
    _atom_site_fract_x
    _atom_site_fract_y
    _atom_site_fract_z
    _atom_site_occupancy
    Zr0     Zr   0.97219   0.36890   0.77442   1.000
    Zr1     Zr   0.62567   0.03152   0.72606   1.000
    Zr2     Zr   0.02767   0.63127   0.22307   1.000
    Zr3     Zr   0.37426   0.96851   0.27379   1.000
    Zr4     Zr   0.38885   0.61374   0.74987   1.000
    Zr5     Zr   0.61134   0.38649   0.25015   1.000
    Zr6     Zr   0.17629   0.45389   0.50999   1.000
    Zr7     Zr   0.54451   0.82800   0.98969   1.000
    Zr8     Zr   0.82789   0.54156   0.49003   1.000
    Zr9     Zr   0.45043   0.17540   0.01119   1.000
    Zr10    Zr   0.00222   0.00000   0.74889   1.000
    Zr11    Zr   0.00000   0.01046   0.25347   1.000
    Zr12    Zr   0.06305   0.42437   0.59921   1.000
    Zr13    Zr   0.29565   0.53943   0.58715   1.000
    Zr14    Zr   0.02697   0.15408   0.76612   1.000
    Zr15    Zr   0.57292   0.93901   0.90011   1.000
    Zr16    Zr   0.46379   0.70783   0.91208   1.000
    Zr17    Zr   0.84647   0.00000   0.73415   1.000
    Zr18    Zr   0.93928   0.57361   0.39989   1.000
    Zr19    Zr   0.70671   0.45849   0.41252   1.000
    Zr20    Zr   0.00000   0.84588   0.23397   1.000
    Zr21    Zr   0.42481   0.06279   0.10001   1.000
    Zr22    Zr   0.53386   0.29412   0.08836   1.000
    Zr23    Zr   0.15326   0.01996   0.26720   1.000
    Zr24    Zr   0.97784   0.38585   0.62408   1.000
    Zr25    Zr   0.10204   0.41763   0.51517   1.000
    Zr26    Zr   0.37589   0.59044   0.60478   1.000
    Zr27    Zr   0.27671   0.50174   0.50933   1.000
    Zr28    Zr   0.07411   0.23699   0.78129   1.000
    Zr29    Zr   0.07331   0.06322   0.76159   1.000
    Zr30    Zr   0.61091   0.02307   0.87495   1.000
    Zr31    Zr   0.57929   0.90218   0.98442   1.000
    Zr32    Zr   0.41627   0.62649   0.89452   1.000
    Zr33    Zr   0.50014   0.72887   0.99022   1.000
    Zr34    Zr   0.76416   0.93194   0.71874   1.000
    Zr35    Zr   0.94093   0.93262   0.73802   1.000
    Zr36    Zr   0.02358   0.61341   0.37464   1.000
    Zr37    Zr   0.90189   0.57815   0.48458   1.000
    Zr38    Zr   0.62534   0.40904   0.39489   1.000
    Zr39    Zr   0.72729   0.49408   0.49078   1.000
    Zr40    Zr   0.92575   0.76308   0.21821   1.000
    Zr41    Zr   0.92645   0.93660   0.23938   1.000
    Zr42    Zr   0.38846   0.97783   0.12477   1.000
    Zr43    Zr   0.41622   0.10100   0.01623   1.000
    Zr44    Zr   0.58349   0.37425   0.10560   1.000
    Zr45    Zr   0.49528   0.27459   0.01073   1.000
    Zr46    Zr   0.23571   0.06788   0.28194   1.000
    Zr47    Zr   0.05860   0.06702   0.26511   1.000
    O48     O    0.51457   0.28436   0.04954   1.000
    O49     O    0.43333   0.13820   0.01371   1.000
    O50     O    0.42052   0.08189   0.05812   1.000
    O51     O    0.55867   0.33419   0.09698   1.000
    O52     O    0.40664   0.02031   0.11239   1.000
    O53     O    0.59741   0.38037   0.17788   1.000
    O54     O    0.38136   0.97317   0.19928   1.000
    O55     O    0.97671   0.69718   0.22064   1.000
    O56     O    0.96288   0.80448   0.22609   1.000
    O57     O    0.02563   0.62234   0.29885   1.000
    O58     O    0.96323   0.89124   0.23668   1.000
    O59     O    0.61834   0.39776   0.32252   1.000
    O60     O    0.02930   0.03874   0.25929   1.000
    O61     O    0.10593   0.04349   0.26615   1.000
    O62     O    0.19448   0.04392   0.27457   1.000
    O63     O    0.30498   0.01819   0.27786   1.000
    O64     O    0.98143   0.59351   0.38726   1.000
    O65     O    0.66602   0.43377   0.40371   1.000
    O66     O    0.92058   0.57588   0.44224   1.000
    O67     O    0.71700   0.47629   0.45165   1.000
    O68     O    0.86489   0.55985   0.48731   1.000
    O69     O    0.28618   0.52058   0.54824   1.000
    O70     O    0.13917   0.43576   0.51258   1.000
    O71     O    0.08255   0.42100   0.55719   1.000
    O72     O    0.33577   0.56493   0.59596   1.000
    O73     O    0.02045   0.40511   0.61165   1.000
    O74     O    0.38237   0.60209   0.67732   1.000
    O75     O    0.97502   0.37738   0.69925   1.000
    O76     O    0.69492   0.98173   0.72240   1.000
    O77     O    0.80531   0.96597   0.72644   1.000
    O78     O    0.61829   0.02729   0.80051   1.000
    O79     O    0.89370   0.96631   0.73608   1.000
    O80     O    0.97158   0.96631   0.74345   1.000
    O81     O    0.40256   0.62012   0.82219   1.000
    O82     O    0.05014   0.10865   0.76386   1.000
    O83     O    0.05054   0.19553   0.77371   1.000
    O84     O    0.02315   0.30295   0.77786   1.000
    O85     O    0.59191   0.98104   0.88753   1.000
    O86     O    0.44003   0.66716   0.90330   1.000
    O87     O    0.57611   0.92059   0.94226   1.000
    O88     O    0.48197   0.71835   0.95115   1.000
    O89     O    0.56190   0.86509   0.98706   1.000
    N90     N    0.12448   0.56469   0.90553   1.000
    O91     O    0.19095   0.54803   0.76570   1.000
    O92     O    0.08866   0.59199   0.02969   1.000
    O93     O    0.07531   0.49599   0.83532   1.000
    O94     O    0.10851   0.50793   0.76954   1.000
    O95     O    0.21910   0.57530   0.82797   1.000
    N96     N    0.33639   0.66480   0.24991   1.000
    O97     O    0.32782   0.78864   0.25714   1.000
    O98     O    0.21076   0.67462   0.24151   1.000
    O99     O    0.19061   0.75234   0.24471   1.000
    O100    O    0.44410   0.55621   0.25016   1.000
    O101    O    0.24771   0.81426   0.25523   1.000
    N102    N    0.66370   0.33540   0.75003   1.000
    O103    O    0.55611   0.44408   0.74992   1.000
    O104    O    0.67216   0.21146   0.74277   1.000
    O105    O    0.75221   0.19082   0.74514   1.000
    O106    O    0.78923   0.32553   0.75759   1.000
    O107    O    0.81614   0.24773   0.75523   1.000
    N108    N    0.87570   0.43567   0.09297   1.000
    O109    O    0.81014   0.45127   0.23329   1.000
    O110    O    0.89256   0.49145   0.22924   1.000
    O111    O    0.78123   0.42484   0.17106   1.000
    O112    O    0.92490   0.50420   0.16296   1.000
    O113    O    0.91129   0.40849   0.96846   1.000
    N114    N    0.43690   0.87417   0.59254   1.000
    O115    O    0.50289   0.92493   0.66358   1.000
    O116    O    0.41138   0.90901   0.46785   1.000
    O117    O    0.45383   0.80974   0.73290   1.000
    O118    O    0.42660   0.78105   0.67072   1.000
    O119    O    0.49181   0.89172   0.72911   1.000
    N120    N    0.56257   0.12630   0.40726   1.000
    O121    O    0.54487   0.19134   0.26715   1.000
    O122    O    0.57294   0.21945   0.32919   1.000
    O123    O    0.49660   0.07552   0.33623   1.000
    O124    O    0.58835   0.09124   0.53193   1.000
    O125    O    0.50689   0.10934   0.27084   1.000
loop_
    _geom_bond_atom_site_label_1
    _geom_bond_atom_site_label_2
    _geom_bond_distance
    _geom_bond_site_symmetry_2
    _ccdc_geom_bond_type
    Zr45   O48       0.63713      .   S
    Zr22   O48       0.63713      .   S
    Zr9    O49       0.53807      .   S
    Zr43   O49       0.53807      .   S
    Zr43   O50       0.65241      .   S
    Zr21   O50       0.65241      .   S
    Zr22   O51       0.63680      .   S
    Zr44   O51       0.63680      .   S
    Zr21   O52       0.62738      .   S
    Zr42   O52       0.62738  1_565   S
    Zr44   O53       1.07317      .   S
    Zr5    O53       1.07317      .   S
    Zr42   O54       1.08355      .   S
    Zr3    O54       1.08355      .   S
    Zr40   O55       1.02801      .   S
    Zr2    O55       1.02801  1_455   S
    Zr40   O56       0.74427      .   S
    Zr20   O56       0.74427  1_455   S
    Zr2    O57       1.10306      .   S
    Zr36   O57       1.10306      .   S
    Zr20   O58       0.72081  1_455   S
    Zr41   O58       0.72081      .   S
    Zr5    O59       1.07025      .   S
    Zr38   O59       1.07025      .   S
    Zr11   O60       0.54442      .   S
    Zr47   O60       0.54442      .   S
    Zr47   O61       0.64955      .   S
    Zr23   O61       0.64955      .   S
    Zr23   O62       0.63330      .   S
    Zr46   O62       0.63330      .   S
    Zr3    O63       1.04640  1_565   S
    Zr46   O63       1.04640      .   S
    Zr36   O64       0.62593  1_455   S
    Zr18   O64       0.62593      .   S
    Zr38   O65       0.63746      .   S
    Zr19   O65       0.63746      .   S
    Zr18   O66       0.65349      .   S
    Zr37   O66       0.65349      .   S
    Zr19   O67       0.63672      .   S
    Zr39   O67       0.63672      .   S
    Zr37   O68       0.53570      .   S
    Zr8    O68       0.53570      .   S
    Zr27   O69       0.63683      .   S
    Zr13   O69       0.63683      .   S
    Zr6    O70       0.53606      .   S
    Zr25   O70       0.53606      .   S
    Zr25   O71       0.65329      .   S
    Zr12   O71       0.65329      .   S
    Zr13   O72       0.63731      .   S
    Zr26   O72       0.63731      .   S
    Zr12   O73       0.62641      .   S
    Zr24   O73       0.62641  1_655   S
    Zr26   O74       1.07283      .   S
    Zr4    O74       1.07283      .   S
    Zr24   O75       1.09385      .   S
    Zr0    O75       1.09385      .   S
    Zr34   O76       1.04649      .   S
    Zr1    O76       1.04649  1_545   S
    Zr34   O77       0.71266      .   S
    Zr17   O77       0.71266  1_545   S
    Zr1    O78       1.08276      .   S
    Zr30   O78       1.08276      .   S
    Zr17   O79       0.71184  1_545   S
    Zr35   O79       0.71184      .   S
    Zr35   O80       0.60696      .   S
    Zr10   O80       0.60696  1_445   S
    Zr4    O81       1.07369      .   S
    Zr32   O81       1.07369      .   S
    Zr29   O82       0.63638      .   S
    Zr14   O82       0.63638      .   S
    Zr14   O83       0.64057      .   S
    Zr28   O83       0.64057      .   S
    Zr0    O84       1.02909  1_655   S
    Zr28   O84       1.02909      .   S
    Zr30   O85       0.62738  1_545   S
    Zr15   O85       0.62738      .   S
    Zr32   O86       0.63684      .   S
    Zr16   O86       0.63684      .   S
    Zr15   O87       0.65198      .   S
    Zr31   O87       0.65198      .   S
    Zr16   O88       0.63718      .   S
    Zr33   O88       0.63718      .   S
    Zr31   O89       0.53849      .   S
    Zr7    O89       0.53849      .   S
    N90    O91       2.18662      .   S
    Zr13   O91       2.88020      .   S
    N90    O92       1.88272  1_556   S
    Zr2    O92       2.93865      .   S
    N90    O93       1.53253      .   S
    Zr0    O93       2.35528  1_655   S
    N90    O94       2.13937      .   S
    Zr12   O94       2.80545      .   S
    N90    O95       1.62913      .   S
    Zr4    O95       2.46782      .   S
    N96    O97       1.59563      .   S
    Zr3    O97       2.44382      .   S
    N96    O98       1.58355      .   S
    Zr2    O98       2.42766      .   S
    N96    O99       2.08727      .   S
    Zr20   O99       2.61433      .   S
    N96    O100      1.87877      .   S
    Zr5    O100      2.92713      .   S
    N96    O101      2.15856      .   S
    Zr23   O101      2.83392  1_545   S
    N102   O103      1.87859      .   S
    Zr4    O103      2.92664      .   S
    N102   O104      1.59688      .   S
    Zr1    O104      2.44511      .   S
    N102   O105      2.10384      .   S
    Zr17   O105      2.65950      .   S
    N102   O106      1.58123      .   S
    Zr0    O106      2.42311      .   S
    N102   O107      2.15910      .   S
    Zr14   O107      2.84294  1_455   S
    N108   O109      2.18780      .   S
    Zr19   O109      2.88177      .   S
    N108   O110      2.13997      .   S
    Zr18   O110      2.80630      .   S
    N108   O111      1.63325      .   S
    Zr5    O111      2.47528      .   S
    N108   O112      1.52914      .   S
    Zr2    O112      2.34790  1_455   S
    N108   O113      1.88667  1_554   S
    Zr0    O113      2.94827      .   S
    N114   O115      1.52446      .   S
    Zr1    O115      2.34511  1_545   S
    N114   O116      1.88359      .   S
    Zr3    O116      2.94062      .   S
    N114   O117      2.19057      .   S
    Zr16   O117      2.88586      .   S
    N114   O118      1.63989      .   S
    Zr4    O118      2.48489      .   S
    N114   O119      2.13613      .   S
    Zr15   O119      2.80087      .   S
    N120   O121      2.19084      .   S
    Zr22   O121      2.88616      .   S
    N120   O122      1.63915      .   S
    Zr5    O122      2.48307      .   S
    N120   O123      1.52429      .   S
    Zr3    O123      2.34450  1_565   S
    N120   O124      1.88445      .   S
    Zr1    O124      2.94262      .   S
    N120   O125      2.13643      .   S
    Zr21   O125      2.80099      .   S
