# CIF file generated by openbabel 2.4.90, see http://openbabel.sf.net
data_I
_chemical_name_common ''
_cell_length_a 12.575
_cell_length_b 12.867
_cell_length_c 14.514
_cell_angle_alpha 88.632
_cell_angle_beta 88.664
_cell_angle_gamma 86.105
_space_group_name_H-M_alt 'P 1'
_space_group_name_Hall 'P 1'
loop_
    _symmetry_equiv_pos_as_xyz
    x,y,z
loop_
    _atom_site_label
    _atom_site_type_symbol
    _atom_site_fract_x
    _atom_site_fract_y
    _atom_site_fract_z
    _atom_site_occupancy
    N0      N    0.12448   0.56469   0.90553   1.000
    N1      N    0.33639   0.66480   0.24991   1.000
    N2      N    0.66370   0.33540   0.75003   1.000
    N3      N    0.87570   0.43567   0.09297   1.000
    N4      N    0.43690   0.87417   0.59254   1.000
    N5      N    0.56257   0.12630   0.40726   1.000
    Zr6     Zr   0.61190   0.38444   0.25043   1.000
    O7      O    0.57838   0.28789   0.25879   1.000
    O8      O    0.71102   0.41786   0.24186   1.000
    O9      O    0.59242   0.30194   0.28981   1.000
    O10     O    0.52800   0.47032   0.25030   1.000
    O11     O    0.69656   0.40464   0.21075   1.000
    Zr12    Zr   0.72079   0.95426   0.82389   1.000
    O13     O    0.73650   0.07254   0.78452   1.000
    O14     O    0.61184   0.93959   0.74373   1.000
    O15     O    0.65457   0.02275   0.67791   1.000
    O16     O    0.69648   0.08286   0.78333   1.000
    O17     O    0.60630   0.92299   0.77650   1.000
    Zr18    Zr   0.38819   0.61551   0.74971   1.000
    O19     O    0.28957   0.58177   0.75770   1.000
    O20     O    0.40739   0.69828   0.71021   1.000
    O21     O    0.30364   0.59540   0.78884   1.000
    O22     O    0.47215   0.52979   0.74982   1.000
    O23     O    0.42101   0.71262   0.74130   1.000
    Zr24    Zr   0.94657   0.68544   0.33297   1.000
    O25     O    0.91956   0.58845   0.28110   1.000
    O26     O    0.06859   0.71889   0.28884   1.000
    O27     O    0.01761   0.63872   0.18133   1.000
    O28     O    0.07866   0.68003   0.28724   1.000
    O29     O    0.93573   0.59482   0.24796   1.000
    Zr30    Zr   0.27797   0.05009   0.17708   1.000
    O31     O    0.34468   0.97955   0.32246   1.000
    O32     O    0.38729   0.06281   0.25665   1.000
    O33     O    0.30290   0.91937   0.21711   1.000
    O34     O    0.39243   0.07972   0.22396   1.000
    O35     O    0.26284   0.93218   0.21616   1.000
    Zr36    Zr   0.05823   0.31312   0.66649   1.000
    O37     O    0.93718   0.28042   0.71086   1.000
    O38     O    0.06677   0.40455   0.75090   1.000
    O39     O    0.92373   0.31932   0.71204   1.000
    O40     O    0.98476   0.36080   0.81747   1.000
    O41     O    0.08337   0.41052   0.71801   1.000
loop_
    _geom_bond_atom_site_label_1
    _geom_bond_atom_site_label_2
    _geom_bond_distance
    _geom_bond_site_symmetry_2
    _ccdc_geom_bond_type
    Zr6    O7        1.34057      .   S
    N5     O7        2.97119      .   S
    Zr6    O8        1.34798      .   S
    N3     O8        2.97370      .   S
    Zr6    O9        1.23009      .   S
    N5     O9        2.83822      .   S
    Zr6    O10       1.47512      .   S
    N1     O10       3.35386      .   S
    Zr6    O11       1.23881      .   S
    N3     O11       2.84004      .   S
    Zr12   O13       1.63580  1_565   S
    N2     O13       3.47105      .   S
    Zr12   O14       1.84011      .   S
    N4     O14       3.30583      .   S
    Zr12   O15       2.41925  1_565   S
    N5     O15       4.27753      .   S
    Zr12   O16       1.75251  1_565   S
    N2     O16       3.27333      .   S
    Zr12   O17       1.68697      .   S
    N4     O17       3.54799      .   S
    Zr18   O19       1.34306      .   S
    N0     O19       2.96542      .   S
    Zr18   O20       1.23310      .   S
    N4     O20       2.84193      .   S
    Zr18   O21       1.23366      .   S
    N0     O21       2.83055      .   S
    Zr18   O22       1.47404      .   S
    N2     O22       3.35262      .   S
    Zr18   O23       1.34431      .   S
    N4     O23       2.97400      .   S
    Zr24   O25       1.53433      .   S
    N3     O25       3.47825      .   S
    Zr24   O26       1.72649  1_655   S
    N1     O26       3.42866      .   S
    Zr24   O27       2.42944  1_655   S
    N0     O27       4.30050  1_556   S
    Zr24   O28       1.77194  1_655   S
    N1     O28       3.26684      .   S
    Zr24   O29       1.73167      .   S
    N3     O29       3.21452      .   S
    Zr30   O31       2.42234  1_545   S
    N4     O31       4.27709      .   S
    Zr30   O32       1.83411      .   S
    N5     O32       3.29522      .   S
    Zr30   O33       1.77629  1_545   S
    N1     O33       3.29859      .   S
    Zr30   O34       1.67703      .   S
    N5     O34       3.53984      .   S
    Zr30   O35       1.62881  1_545   S
    N1     O35       3.52698      .   S
    Zr36   O37       1.71372  1_455   S
    N2     O37       3.49975      .   S
    Zr36   O38       1.72890      .   S
    N0     O38       3.21072      .   S
    Zr36   O39       1.79888  1_455   S
    N2     O39       3.29673      .   S
    Zr36   O40       2.43418  1_455   S
    N3     O40       4.30652  1_554   S
    Zr36   O41       1.52960      .   S
    N0     O41       3.47452      .   S
