# CIF file generated by openbabel 2.4.90, see http://openbabel.sf.net
data_I
_chemical_name_common ''
_cell_length_a 7.639
_cell_length_b 12.824
_cell_length_c 12.929
_cell_angle_alpha 80.642
_cell_angle_beta 85.374
_cell_angle_gamma 85.506
_space_group_name_H-M_alt 'P 1'
_space_group_name_Hall 'P 1'
loop_
    _symmetry_equiv_pos_as_xyz
    x,y,z
loop_
    _atom_site_label
    _atom_site_type_symbol
    _atom_site_fract_x
    _atom_site_fract_y
    _atom_site_fract_z
    _atom_site_occupancy
    C0      C    0.43027   0.28405   0.22680   1.000
    C1      C    0.06784   0.77377   0.71581   1.000
    C2      C    0.56972   0.71593   0.77323   1.000
    C3      C    0.93216   0.22621   0.28422   1.000
    C4      C    0.69547   0.46413   0.95148   1.000
    C5      C    0.21433   0.44827   0.79623   1.000
    C6      C    0.06635   0.20243   0.05075   1.000
    C7      C    0.49042   0.36947   0.85903   1.000
    C8      C    0.41026   0.30420   0.76186   1.000
    C9      C    0.49695   0.11960   0.99645   1.000
    C10     C    0.80487   0.05068   0.53428   1.000
    C11     C    0.28483   0.20464   0.55082   1.000
    C12     C    0.43670   0.95129   0.79637   1.000
    C13     C    0.00977   0.14065   0.63115   1.000
    C14     C    0.08969   0.23988   0.69437   1.000
    C15     C    0.00603   0.00295   0.87839   1.000
    C16     C    0.30453   0.53584   0.04855   1.000
    C17     C    0.78567   0.55172   0.20380   1.000
    C18     C    0.93365   0.79755   0.94928   1.000
    C19     C    0.50959   0.63051   0.14101   1.000
    C20     C    0.58974   0.69579   0.23817   1.000
    C21     C    0.50306   0.88038   0.00358   1.000
    C22     C    0.19513   0.94930   0.46576   1.000
    C23     C    0.71517   0.79534   0.44921   1.000
    C24     C    0.56329   0.04869   0.20366   1.000
    C25     C    0.99023   0.85934   0.36888   1.000
    C26     C    0.91032   0.76011   0.30566   1.000
    C27     C    0.99397   0.99703   0.12164   1.000
    C28     C    0.75205   0.98652   0.01155   1.000
    C29     C    0.75024   0.28607   0.71514   1.000
    C30     C    0.24795   0.01347   0.98848   1.000
    C31     C    0.24976   0.71391   0.28489   1.000
    C32     C    0.86663   0.32874   0.01084   1.000
    C33     C    0.82388   0.42242   0.94266   1.000
    C34     C    0.94945   0.46401   0.86573   1.000
    C35     C    0.11785   0.41230   0.85507   1.000
    C36     C    0.15683   0.31648   0.92049   1.000
    C37     C    0.03158   0.27550   0.00000   1.000
    C38     C    0.73918   0.28747   0.09830   1.000
    C39     C    0.45268   0.29256   0.84289   1.000
    C40     C    0.60614   0.21077   0.85431   1.000
    C41     C    0.60805   0.12662   0.93820   1.000
    C42     C    0.90277   0.56717   0.79776   1.000
    C43     C    0.63520   0.99127   0.66989   1.000
    C44     C    0.67673   0.05931   0.57619   1.000
    C45     C    0.55017   0.13576   0.53477   1.000
    C46     C    0.38206   0.14618   0.58665   1.000
    C47     C    0.34432   0.08091   0.68238   1.000
    C48     C    0.47056   0.00000   0.72325   1.000
    C49     C    0.76348   0.90410   0.71094   1.000
    C50     C    0.04803   0.15791   0.70690   1.000
    C51     C    0.89543   0.14608   0.78883   1.000
    C52     C    0.89463   0.06133   0.87215   1.000
    C53     C    0.59572   0.20335   0.43163   1.000
    C54     C    0.13337   0.67124   0.98919   1.000
    C55     C    0.17612   0.57756   0.05738   1.000
    C56     C    0.05055   0.53597   0.13430   1.000
    C57     C    0.88215   0.58769   0.14496   1.000
    C58     C    0.84317   0.68350   0.07954   1.000
    C59     C    0.96842   0.72448   0.00110   1.000
    C60     C    0.26081   0.71251   0.90173   1.000
    C61     C    0.54732   0.70743   0.15714   1.000
    C62     C    0.39386   0.78921   0.14572   1.000
    C63     C    0.39195   0.87337   0.06184   1.000
    C64     C    0.09723   0.43281   0.20226   1.000
    C65     C    0.36480   0.00871   0.33014   1.000
    C66     C    0.32327   0.94068   0.42385   1.000
    C67     C    0.44983   0.86422   0.46526   1.000
    C68     C    0.61793   0.85380   0.41338   1.000
    C69     C    0.65567   0.91907   0.31765   1.000
    C70     C    0.52944   0.99706   0.27678   1.000
    C71     C    0.23652   0.09588   0.28910   1.000
    C72     C    0.95197   0.84207   0.29313   1.000
    C73     C    0.10457   0.85391   0.21120   1.000
    C74     C    0.10537   0.93866   0.12788   1.000
    C75     C    0.40428   0.79663   0.56840   1.000
    C76     C    0.75162   0.05230   0.94643   1.000
    C77     C    0.75062   0.22013   0.78041   1.000
    C78     C    0.24838   0.94768   0.05360   1.000
    C79     C    0.24938   0.77986   0.21962   1.000
    C80     C    0.58411   0.33323   0.10188   1.000
    C81     C    0.78533   0.20894   0.16757   1.000
    C82     C    0.74000   0.59071   0.78721   1.000
    C83     C    0.03017   0.62219   0.75556   1.000
    C84     C    0.31126   0.25592   0.91594   1.000
    C85     C    0.91898   0.90142   0.66586   1.000
    C86     C    0.71792   0.83368   0.78865   1.000
    C87     C    0.75828   0.21435   0.40748   1.000
    C88     C    0.46747   0.24456   0.37737   1.000
    C89     C    0.19033   0.08519   0.74303   1.000
    C90     C    0.41589   0.66675   0.89815   1.000
    C91     C    0.21466   0.79104   0.83246   1.000
    C92     C    0.25999   0.40926   0.21281   1.000
    C93     C    0.96983   0.37779   0.24447   1.000
    C94     C    0.68874   0.74407   0.08409   1.000
    C95     C    0.08102   0.09856   0.33417   1.000
    C96     C    0.28208   0.16630   0.21138   1.000
    C97     C    0.24172   0.78563   0.59255   1.000
    C98     C    0.53253   0.75542   0.62266   1.000
    C99     C    0.80966   0.91479   0.25700   1.000
    O100    O    0.94910   0.30212   0.00542   1.000
    O101    O    0.04897   0.23897   0.02538   1.000
    O102    O    0.09420   0.29599   0.96024   1.000
    O103    O    0.90580   0.70399   0.04032   1.000
    O104    O    0.95103   0.76101   0.97519   1.000
    O105    O    0.05089   0.69786   0.99514   1.000
    O106    O    0.44750   0.87688   0.03271   1.000
    O107    O    0.80290   0.30810   0.05457   1.000
    O108    O    0.84525   0.37558   0.97675   1.000
    O109    O    0.75183   0.01941   0.97899   1.000
    O110    O    0.24032   0.55670   0.05296   1.000
    O111    O    0.32017   0.91053   0.05772   1.000
    O112    O    0.17688   0.94317   0.09074   1.000
    O113    O    0.24817   0.98058   0.02104   1.000
    O114    O    0.11334   0.55676   0.09584   1.000
    O115    O    0.15475   0.62440   0.02328   1.000
    O116    O    0.39291   0.83129   0.10378   1.000
    O117    O    0.76595   0.71378   0.08182   1.000
    O118    O    0.86266   0.63559   0.11225   1.000
    O119    O    0.61803   0.72575   0.12062   1.000
    O120    O    0.66165   0.31035   0.10009   1.000
    O121    O    0.76226   0.24820   0.13293   1.000
    O122    O    0.50719   0.30864   0.16434   1.000
    O123    O    0.04967   0.96785   0.12476   1.000
    O124    O    0.10497   0.89628   0.16954   1.000
    O125    O    0.96635   0.56183   0.13963   1.000
    O126    O    0.07389   0.48439   0.16828   1.000
    O127    O    0.52845   0.66897   0.14908   1.000
    O128    O    0.83391   0.56970   0.17438   1.000
    O129    O    0.47059   0.74832   0.15143   1.000
    O130    O    0.32162   0.78453   0.18267   1.000
    O131    O    0.56853   0.70161   0.19766   1.000
    O132    O    0.85875   0.21758   0.22589   1.000
    O133    O    0.17861   0.42104   0.20754   1.000
    O134    O    0.03353   0.40530   0.22337   1.000
    O135    O    0.54636   0.02288   0.24022   1.000
    O136    O    0.17698   0.81688   0.21541   1.000
    O137    O    0.02827   0.84799   0.25216   1.000
    O138    O    0.35617   0.22517   0.21909   1.000
    O139    O    0.25930   0.13109   0.25024   1.000
    O140    O    0.34513   0.34666   0.21981   1.000
    O141    O    0.24957   0.74689   0.25226   1.000
    O142    O    0.44887   0.26430   0.30209   1.000
    O143    O    0.95099   0.30200   0.26434   1.000
    O144    O    0.88081   0.87843   0.27507   1.000
    O145    O    0.73267   0.91693   0.28733   1.000
    O146    O    0.59255   0.95806   0.29721   1.000
    O147    O    0.44712   0.00289   0.30346   1.000
    O148    O    0.00659   0.16238   0.30919   1.000
    O149    O    0.84522   0.22028   0.34585   1.000
    O150    O    0.30066   0.05230   0.30962   1.000
    O151    O    0.15877   0.09722   0.31163   1.000
    O152    O    0.93114   0.80109   0.29939   1.000
    O153    O    0.97110   0.85071   0.33101   1.000
    O154    O    0.63680   0.88643   0.36551   1.000
    O155    O    0.34403   0.97469   0.37700   1.000
    O156    O    0.53160   0.22396   0.40450   1.000
    O157    O    0.67700   0.20885   0.41956   1.000
    O158    O    0.66655   0.82457   0.43129   1.000
    O159    O    0.53388   0.85901   0.43932   1.000
    O160    O    0.38655   0.90245   0.44455   1.000
    O161    O    0.25920   0.94499   0.44480   1.000
    O162    O    0.57294   0.16956   0.48320   1.000
    O163    O    0.42706   0.83042   0.51683   1.000
    O164    O    0.74080   0.05500   0.55523   1.000
    O165    O    0.61345   0.09753   0.55548   1.000
    O166    O    0.46612   0.14097   0.56071   1.000
    O167    O    0.33345   0.17541   0.56874   1.000
    O168    O    0.32300   0.79113   0.58047   1.000
    O169    O    0.46840   0.77602   0.59553   1.000
    O170    O    0.65597   0.02529   0.62304   1.000
    O171    O    0.36319   0.11355   0.63452   1.000
    O172    O    0.15478   0.77970   0.65418   1.000
    O173    O    0.55112   0.73568   0.69794   1.000
    O174    O    0.02890   0.14928   0.66903   1.000
    O175    O    0.84123   0.90276   0.68840   1.000
    O176    O    0.99341   0.83760   0.69084   1.000
    O177    O    0.69934   0.94768   0.69041   1.000
    O178    O    0.55288   0.99564   0.69657   1.000
    O179    O    0.40744   0.04046   0.70282   1.000
    O180    O    0.26733   0.08305   0.71270   1.000
    O181    O    0.06886   0.19889   0.70064   1.000
    O182    O    0.11918   0.12155   0.72496   1.000
    O183    O    0.97173   0.15199   0.74787   1.000
    O184    O    0.74070   0.86889   0.74979   1.000
    O185    O    0.75043   0.25310   0.74777   1.000
    O186    O    0.04900   0.69798   0.73569   1.000
    O187    O    0.14125   0.78240   0.77414   1.000
    O188    O    0.45363   0.97564   0.75981   1.000
    O189    O    0.96647   0.59468   0.77666   1.000
    O190    O    0.43147   0.29838   0.80237   1.000
    O191    O    0.65486   0.65332   0.78022   1.000
    O192    O    0.64382   0.77481   0.78094   1.000
    O193    O    0.49281   0.69134   0.83569   1.000
    O194    O    0.82302   0.18310   0.78462   1.000
    O195    O    0.67838   0.21545   0.81736   1.000
    O196    O    0.82139   0.57894   0.79249   1.000
    O197    O    0.89503   0.10370   0.83049   1.000
    O198    O    0.16609   0.43028   0.82565   1.000
    O199    O    0.92611   0.51559   0.83175   1.000
    O200    O    0.23774   0.75178   0.86709   1.000
    O201    O    0.52941   0.25167   0.84860   1.000
    O202    O    0.47155   0.33101   0.85096   1.000
    O203    O    0.38197   0.27424   0.87942   1.000
    O204    O    0.60709   0.16870   0.89625   1.000
    O205    O    0.03365   0.43815   0.86040   1.000
    O206    O    0.13734   0.36439   0.88778   1.000
    O207    O    0.88666   0.44322   0.90419   1.000
    O208    O    0.95033   0.03214   0.87527   1.000
    O209    O    0.82312   0.05682   0.90929   1.000
    O210    O    0.33835   0.68963   0.89994   1.000
    O211    O    0.19709   0.69188   0.94546   1.000
    O212    O    0.23405   0.28620   0.91822   1.000
    O213    O    0.67983   0.08946   0.94232   1.000
    O214    O    0.55250   0.12311   0.96732   1.000
    O215    O    0.75967   0.44328   0.94707   1.000
loop_
    _geom_bond_atom_site_label_1
    _geom_bond_atom_site_label_2
    _geom_bond_distance
    _geom_bond_site_symmetry_2
    _ccdc_geom_bond_type
    C37    O100      0.69667  1_455   S
    C32    O100      0.69667      .   S
    C37    O101      0.54046      .   S
    C6     O101      0.54046      .   S
    C37    O102      0.70583  1_554   S
    C36    O102      0.70583      .   S
    C59    O103      0.70162      .   S
    C58    O103      0.70162      .   S
    C59    O104      0.54384  1_554   S
    C18    O104      0.54384      .   S
    C59    O105      0.69743  1_654   S
    C54    O105      0.69743      .   S
    C21    O106      0.54371      .   S
    C63    O106      0.54371      .   S
    C32    O107      0.74416      .   S
    C38    O107      0.74416      .   S
    C32    O108      0.70138  1_554   S
    C33    O108      0.70138      .   S
    C28    O109      0.54533  1_564   S
    C76    O109      0.54533      .   S
    C16    O110      0.54334      .   S
    C55    O110      0.54334      .   S
    C78    O111      0.69721      .   S
    C63    O111      0.69721      .   S
    C78    O112      0.69710      .   S
    C74    O112      0.69710      .   S
    C78    O113      0.54533      .   S
    C30    O113      0.54533  1_546   S
    C55    O114      0.69776      .   S
    C56    O114      0.69776      .   S
    C55    O115      0.70138      .   S
    C54    O115      0.70138  1_556   S
    C63    O116      0.70011      .   S
    C62    O116      0.70011      .   S
    C58    O117      0.68164      .   S
    C94    O117      0.68164      .   S
    C58    O118      0.69984      .   S
    C57    O118      0.69984      .   S
    C94    O119      0.71599      .   S
    C61    O119      0.71599      .   S
    C38    O120      0.64048      .   S
    C80    O120      0.64048      .   S
    C38    O121      0.64077      .   S
    C81    O121      0.64077      .   S
    C80    O122      0.98312      .   S
    C0     O122      0.98312      .   S
    C27    O123      0.54376  1_655   S
    C74    O123      0.54376      .   S
    C74    O124      0.70013      .   S
    C73    O124      0.70013      .   S
    C56    O125      0.70377  1_455   S
    C57    O125      0.70377      .   S
    C56    O126      0.74969      .   S
    C64    O126      0.74969      .   S
    C19    O127      0.55240      .   S
    C61    O127      0.55240      .   S
    C57    O128      0.54391      .   S
    C17    O128      0.54391      .   S
    C62    O129      0.75513      .   S
    C61    O129      0.75513      .   S
    C62    O130      0.69980      .   S
    C79    O130      0.69980      .   S
    C61    O131      0.55252      .   S
    C20    O131      0.55252      .   S
    C81    O132      1.00024      .   S
    C3     O132      1.00024      .   S
    C64    O133      0.63461      .   S
    C92    O133      0.63461      .   S
    C64    O134      0.64021      .   S
    C93    O134      0.64021  1_655   S
    C24    O135      0.54376      .   S
    C70    O135      0.54376  1_565   S
    C73    O136      0.69975      .   S
    C79    O136      0.69975      .   S
    C73    O137      0.75504      .   S
    C72    O137      0.75504  1_655   S
    C96    O138      1.00043      .   S
    C0     O138      1.00043      .   S
    C96    O139      0.64109      .   S
    C71    O139      0.64109      .   S
    C92    O140      0.98988      .   S
    C0     O140      0.98988      .   S
    C79    O141      0.54659      .   S
    C31    O141      0.54659      .   S
    C0     O142      0.98401      .   S
    C88    O142      0.98401      .   S
    C93    O143      0.98287      .   S
    C3     O143      0.98287      .   S
    C99    O144      0.71603      .   S
    C72    O144      0.71603      .   S
    C99    O145      0.68129      .   S
    C69    O145      0.68129      .   S
    C70    O146      0.70153      .   S
    C69    O146      0.70153      .   S
    C70    O147      0.69719  1_565   S
    C65    O147      0.69719      .   S
    C3     O148      0.98400  1_655   S
    C95    O148      0.98400      .   S
    C3     O149      0.99231      .   S
    C87    O149      0.99231      .   S
    C71    O150      0.74345      .   S
    C65    O150      0.74345      .   S
    C71    O151      0.64037      .   S
    C95    O151      0.64037      .   S
    C72    O152      0.55252      .   S
    C26    O152      0.55252      .   S
    C72    O153      0.55239      .   S
    C25    O153      0.55239      .   S
    C69    O154      0.69984      .   S
    C68    O154      0.69984      .   S
    C65    O155      0.70129  1_545   S
    C66    O155      0.70129      .   S
    C88    O156      0.64038      .   S
    C53    O156      0.64038      .   S
    C87    O157      0.63441      .   S
    C53    O157      0.63441      .   S
    C68    O158      0.54394      .   S
    C23    O158      0.54394      .   S
    C68    O159      0.70358      .   S
    C67    O159      0.70358      .   S
    C66    O160      0.69767      .   S
    C67    O160      0.69767      .   S
    C66    O161      0.54335      .   S
    C22    O161      0.54335      .   S
    C53    O162      0.74953      .   S
    C45    O162      0.74953      .   S
    C67    O163      0.74953      .   S
    C75    O163      0.74953      .   S
    C10    O164      0.54335      .   S
    C44    O164      0.54335      .   S
    C45    O165      0.69768      .   S
    C44    O165      0.69768      .   S
    C45    O166      0.70358      .   S
    C46    O166      0.70358      .   S
    C11    O167      0.54395      .   S
    C46    O167      0.54395      .   S
    C75    O168      0.63442      .   S
    C97    O168      0.63442      .   S
    C75    O169      0.64038      .   S
    C98    O169      0.64038      .   S
    C44    O170      0.70129      .   S
    C43    O170      0.70129  1_565   S
    C46    O171      0.69983      .   S
    C47    O171      0.69983      .   S
    C97    O172      0.99231      .   S
    C1     O172      0.99231      .   S
    C98    O173      0.98400      .   S
    C2     O173      0.98400      .   S
    C13    O174      0.55239      .   S
    C50    O174      0.55239      .   S
    C85    O175      0.64037      .   S
    C49    O175      0.64037      .   S
    C85    O176      0.98399      .   S
    C1     O176      0.98399  1_455   S
    C43    O177      0.74345      .   S
    C49    O177      0.74345      .   S
    C43    O178      0.69525      .   S
    C48    O178      0.69525  1_545   S
    C47    O179      0.71289      .   S
    C48    O179      0.71289      .   S
    C47    O180      0.68129      .   S
    C89    O180      0.68129      .   S
    C14    O181      0.55253      .   S
    C50    O181      0.55253      .   S
    C50    O182      0.71603      .   S
    C89    O182      0.71603      .   S
    C50    O183      0.75503  1_455   S
    C51    O183      0.75503      .   S
    C49    O184      0.64110      .   S
    C86    O184      0.64110      .   S
    C29    O185      0.54659      .   S
    C77    O185      0.54659      .   S
    C1     O186      0.98287      .   S
    C83    O186      0.98287      .   S
    C1     O187      1.00025      .   S
    C91    O187      1.00025      .   S
    C48    O188      0.53490  1_545   S
    C12    O188      0.53490      .   S
    C83    O189      0.64020  1_455   S
    C42    O189      0.64020      .   S
    C8     O190      0.55252      .   S
    C39    O190      0.55252      .   S
    C2     O191      0.98988      .   S
    C82    O191      0.98988      .   S
    C2     O192      1.00043      .   S
    C86    O192      1.00043      .   S
    C2     O193      0.98312      .   S
    C90    O193      0.98312      .   S
    C77    O194      0.69975      .   S
    C51    O194      0.69975      .   S
    C77    O195      0.69979      .   S
    C40    O195      0.69979      .   S
    C82    O196      0.63460      .   S
    C42    O196      0.63460      .   S
    C51    O197      0.70013      .   S
    C52    O197      0.70013      .   S
    C5     O198      0.54391      .   S
    C35    O198      0.54391      .   S
    C42    O199      0.74969      .   S
    C34    O199      0.74969      .   S
    C91    O200      0.64077      .   S
    C60    O200      0.64077      .   S
    C39    O201      0.75513      .   S
    C40    O201      0.75513      .   S
    C39    O202      0.55240      .   S
    C7     O202      0.55240      .   S
    C39    O203      0.71600      .   S
    C84    O203      0.71600      .   S
    C40    O204      0.70011      .   S
    C41    O204      0.70011      .   S
    C35    O205      0.70376      .   S
    C34    O205      0.70376  1_655   S
    C35    O206      0.69984      .   S
    C36    O206      0.69984      .   S
    C34    O207      0.69776      .   S
    C33    O207      0.69776      .   S
    C52    O208      0.54375      .   S
    C15    O208      0.54375  1_455   S
    C52    O209      0.69711      .   S
    C76    O209      0.69711      .   S
    C90    O210      0.64049      .   S
    C60    O210      0.64049      .   S
    C60    O211      0.74416      .   S
    C54    O211      0.74416      .   S
    C84    O212      0.68163      .   S
    C36    O212      0.68163      .   S
    C41    O213      0.69721      .   S
    C76    O213      0.69721      .   S
    C41    O214      0.54372      .   S
    C9     O214      0.54372      .   S
    C33    O215      0.54334      .   S
    C4     O215      0.54334      .   S
