# CIF file generated by openbabel 2.4.90, see http://openbabel.sf.net
data_I
_chemical_name_common ''
_cell_length_a 16.243
_cell_length_b 16.245
_cell_length_c 23.175
_cell_angle_alpha 73.291
_cell_angle_beta 73.07
_cell_angle_gamma 67.44
_space_group_name_H-M_alt 'P 1'
_space_group_name_Hall 'P 1'
loop_
    _symmetry_equiv_pos_as_xyz
    x,y,z
loop_
    _atom_site_label
    _atom_site_type_symbol
    _atom_site_fract_x
    _atom_site_fract_y
    _atom_site_fract_z
    _atom_site_occupancy
    Zr0     Zr   0.99500   0.59048   0.48820   1.000
    Zr1     Zr   0.40940   0.00487   0.01223   1.000
    Zr2     Zr   0.00510   0.40947   0.51170   1.000
    Zr3     Zr   0.59065   0.99507   0.98771   1.000
    Zr4     Zr   0.14165   0.44274   0.55139   1.000
    Zr5     Zr   0.48915   0.10952   0.89076   1.000
    Zr6     Zr   0.55745   0.85681   0.94980   1.000
    Zr7     Zr   0.88862   0.51201   0.60868   1.000
    Zr8     Zr   0.85842   0.55709   0.44857   1.000
    Zr9     Zr   0.51094   0.89040   0.10916   1.000
    Zr10    Zr   0.44257   0.14313   0.05012   1.000
    Zr11    Zr   0.11150   0.48802   0.39122   1.000
    Zr12    Zr   0.10579   0.52725   0.53080   1.000
    Zr13    Zr   0.11474   0.37926   0.55010   1.000
    Zr14    Zr   0.56806   0.07996   0.90355   1.000
    Zr15    Zr   0.41929   0.09023   0.92538   1.000
    Zr16    Zr   0.47288   0.89246   0.97095   1.000
    Zr17    Zr   0.62090   0.88456   0.94999   1.000
    Zr18    Zr   0.91879   0.43331   0.59533   1.000
    Zr19    Zr   0.90745   0.58213   0.57445   1.000
    Zr20    Zr   0.89368   0.47266   0.46970   1.000
    Zr21    Zr   0.88595   0.62043   0.44927   1.000
    Zr22    Zr   0.43208   0.91983   0.09631   1.000
    Zr23    Zr   0.58076   0.90982   0.07460   1.000
    Zr24    Zr   0.52711   0.10763   0.02881   1.000
    Zr25    Zr   0.37913   0.11530   0.05004   1.000
    Zr26    Zr   0.08217   0.56648   0.40482   1.000
    Zr27    Zr   0.09192   0.41815   0.42523   1.000
    O28     O    0.39426   0.06008   0.03114   1.000
    O29     O    0.42074   0.96235   0.05427   1.000
    O30     O    0.41434   0.04755   0.96881   1.000
    O31     O    0.44114   0.94866   0.99159   1.000
    O32     O    0.48484   0.12538   0.03947   1.000
    O33     O    0.55888   0.05135   0.00826   1.000
    O34     O    0.41085   0.12922   0.05008   1.000
    O35     O    0.54585   0.90011   0.09188   1.000
    O36     O    0.58571   0.95244   0.03116   1.000
    O37     O    0.47151   0.90512   0.10274   1.000
    O38     O    0.09684   0.52725   0.39802   1.000
    O39     O    0.10171   0.45308   0.40823   1.000
    O40     O    0.03858   0.57848   0.44651   1.000
    O41     O    0.04851   0.41381   0.46847   1.000
    O42     O    0.87218   0.58876   0.44892   1.000
    O43     O    0.87605   0.51488   0.45914   1.000
    O44     O    0.94047   0.60546   0.46874   1.000
    O45     O    0.94939   0.44107   0.49070   1.000
    O46     O    0.05039   0.55887   0.50950   1.000
    O47     O    0.95123   0.58631   0.53133   1.000
    O48     O    0.05992   0.39437   0.53090   1.000
    O49     O    0.96194   0.42139   0.55351   1.000
    O50     O    0.12372   0.48500   0.54110   1.000
    O51     O    0.12819   0.41100   0.55075   1.000
    O52     O    0.89804   0.54707   0.59157   1.000
    O53     O    0.90371   0.47266   0.60201   1.000
    O54     O    0.52860   0.09474   0.89715   1.000
    O55     O    0.45422   0.09987   0.90807   1.000
    O56     O    0.57936   0.03751   0.94563   1.000
    O57     O    0.58918   0.87068   0.94989   1.000
    O58     O    0.51516   0.87463   0.96038   1.000
    O59     O    0.60578   0.93981   0.96885   1.000
    O60     O    0.00005   0.49998   0.49995   1.000
    O61     O    0.50002   0.99997   0.99997   1.000
    N62     N    0.68761   0.61373   0.81277   1.000
    O63     O    0.77255   0.56566   0.72602   1.000
    O64     O    0.62930   0.71489   0.87430   1.000
    N65     N    0.31248   0.38621   0.18714   1.000
    O66     O    0.37076   0.28506   0.12561   1.000
    O67     O    0.22756   0.43431   0.27389   1.000
    N68     N    0.00002   0.99961   0.49997   1.000
    O69     O    0.00191   0.17239   0.50724   1.000
    O70     O    0.99814   0.82720   0.49269   1.000
    N71     N    0.38475   0.31186   0.68821   1.000
    O72     O    0.43396   0.22628   0.77428   1.000
    O73     O    0.28343   0.37054   0.62689   1.000
    N74     N    0.99966   0.99998   0.99998   1.000
    O75     O    0.82735   0.99810   0.99247   1.000
    O76     O    0.17232   0.00185   0.00749   1.000
    N77     N    0.61529   0.68810   0.31174   1.000
    O78     O    0.71663   0.62937   0.37306   1.000
    O79     O    0.56610   0.77367   0.22566   1.000
loop_
    _geom_bond_atom_site_label_1
    _geom_bond_atom_site_label_2
    _geom_bond_distance
    _geom_bond_site_symmetry_2
    _ccdc_geom_bond_type
    Zr1    O28       1.02519      .   S
    Zr25   O28       1.02519      .   S
    Zr1    O29       1.03930  1_545   S
    Zr22   O29       1.03930      .   S
    Zr1    O30       1.04614  1_554   S
    Zr15   O30       1.04614      .   S
    Zr1    O31       1.03660  1_544   S
    Zr16   O31       1.03660      .   S
    Zr24   O32       0.63705      .   S
    Zr10   O32       0.63705      .   S
    Zr24   O33       1.03643      .   S
    Zr3    O33       1.03643  1_566   S
    Zr25   O34       0.63749      .   S
    Zr10   O34       0.63749      .   S
    Zr23   O35       0.63784      .   S
    Zr9    O35       0.63784      .   S
    Zr23   O36       1.04609      .   S
    Zr3    O36       1.04609  1_556   S
    Zr22   O37       0.63803      .   S
    Zr9    O37       0.63803      .   S
    Zr11   O38       0.63808      .   S
    Zr26   O38       0.63808      .   S
    Zr11   O39       0.63780      .   S
    Zr27   O39       0.63780      .   S
    Zr26   O40       1.03767      .   S
    Zr0    O40       1.03767  1_655   S
    Zr27   O41       1.04505      .   S
    Zr2    O41       1.04505      .   S
    Zr8    O42       0.63754      .   S
    Zr21   O42       0.63754      .   S
    Zr8    O43       0.63702      .   S
    Zr20   O43       0.63702      .   S
    Zr21   O44       1.02534      .   S
    Zr0    O44       1.02534      .   S
    Zr20   O45       1.03715      .   S
    Zr2    O45       1.03715  1_455   S
    Zr0    O46       1.03700  1_655   S
    Zr12   O46       1.03700      .   S
    Zr0    O47       1.04552      .   S
    Zr19   O47       1.04552      .   S
    Zr2    O48       1.02532      .   S
    Zr13   O48       1.02532      .   S
    Zr2    O49       1.03735  1_455   S
    Zr18   O49       1.03735      .   S
    Zr12   O50       0.63704      .   S
    Zr4    O50       0.63704      .   S
    Zr13   O51       0.63772      .   S
    Zr4    O51       0.63772      .   S
    Zr19   O52       0.63775      .   S
    Zr7    O52       0.63775      .   S
    Zr18   O53       0.63810      .   S
    Zr7    O53       0.63810      .   S
    Zr5    O54       0.63805      .   S
    Zr14   O54       0.63805      .   S
    Zr5    O55       0.63785      .   S
    Zr15   O55       0.63785      .   S
    Zr14   O56       1.03953      .   S
    Zr3    O56       1.03953  1_565   S
    Zr6    O57       0.63753      .   S
    Zr17   O57       0.63753      .   S
    Zr6    O58       0.63705      .   S
    Zr16   O58       0.63705      .   S
    Zr17   O59       1.02515      .   S
    Zr3    O59       1.02515      .   S
    Zr0    O60       1.39024  1_655   S
    Zr2    O60       1.39024      .   S
    Zr1    O61       1.39053  1_544   S
    Zr3    O61       1.39053      .   S
    N62    O63       2.23959      .   S
    Zr7    O63       2.97080      .   S
    N62    O64       2.23546      .   S
    Zr6    O64       2.96725      .   S
    N65    O66       2.23549      .   S
    Zr10   O66       2.96722      .   S
    N65    O67       2.23959      .   S
    Zr11   O67       2.97079      .   S
    N68    O69       2.87204  1_565   S
    Zr2    O69       3.90288      .   S
    N68    O70       2.86598  1_455   S
    Zr0    O70       3.89678      .   S
    N71    O72       2.24302      .   S
    Zr5    O72       2.97478      .   S
    N71    O73       2.23968      .   S
    Zr4    O73       2.97241      .   S
    N74    O75       2.86645      .   S
    Zr3    O75       3.89769      .   S
    N74    O76       2.87224  1_666   S
    Zr1    O76       3.90347      .   S
    N77    O78       2.23980      .   S
    Zr8    O78       2.97262      .   S
    N77    O79       2.24304      .   S
    Zr9    O79       2.97488      .   S
