# CIF file generated by openbabel 2.4.90, see http://openbabel.sf.net
data_I
_chemical_name_common 'VESTA_phase_1'
_cell_length_a 20.297
_cell_length_b 22.807
_cell_length_c 18.089
_cell_angle_alpha 99.858
_cell_angle_beta 89.934
_cell_angle_gamma 116.458
_space_group_name_H-M_alt 'P 1'
_space_group_name_Hall 'P 1'
loop_
    _symmetry_equiv_pos_as_xyz
    x,y,z
loop_
    _atom_site_label
    _atom_site_type_symbol
    _atom_site_fract_x
    _atom_site_fract_y
    _atom_site_fract_z
    _atom_site_occupancy
    Cd0     Cd   0.23007   0.40465   0.97388   1.000
    Cd1     Cd   0.23007   0.90465   0.97388   1.000
    Cd2     Cd   0.73006   0.40465   0.97388   1.000
    Cd3     Cd   0.73007   0.90465   0.97388   1.000
    Cd4     Cd   0.32535   0.09531   0.52608   1.000
    Cd5     Cd   0.32536   0.59532   0.52608   1.000
    Cd6     Cd   0.82535   0.09531   0.52608   1.000
    Cd7     Cd   0.82535   0.59532   0.52608   1.000
    Cd8     Cd   0.26995   0.09537   0.02610   1.000
    Cd9     Cd   0.26996   0.59538   0.02610   1.000
    Cd10    Cd   0.76995   0.09537   0.02610   1.000
    Cd11    Cd   0.76995   0.59537   0.02610   1.000
    Cd12    Cd   0.17466   0.40471   0.47390   1.000
    Cd13    Cd   0.17467   0.90471   0.47390   1.000
    Cd14    Cd   0.67466   0.40471   0.47390   1.000
    Cd15    Cd   0.67466   0.90471   0.47390   1.000
    Cd16    Cd   0.25001   0.25001   0.00000   1.000
    Cd17    Cd   0.25001   0.75001   0.99998   1.000
    Cd18    Cd   0.75001   0.25001   0.00000   1.000
    Cd19    Cd   0.75001   0.75002   0.99999   1.000
    Cd20    Cd   0.00001   0.25001   0.49999   1.000
    Cd21    Cd   0.00000   0.75001   0.49998   1.000
    Cd22    Cd   0.50001   0.25001   0.49999   1.000
    Cd23    Cd   0.50001   0.75001   0.49999   1.000
    H24     H    0.19802   0.18021   0.83599   1.000
    H25     H    0.19802   0.68022   0.83599   1.000
    H26     H    0.69801   0.18021   0.83599   1.000
    H27     H    0.69802   0.68022   0.83599   1.000
    H28     H    0.12712   0.07619   0.74556   1.000
    H29     H    0.12712   0.57620   0.74556   1.000
    H30     H    0.62712   0.07619   0.74556   1.000
    H31     H    0.62712   0.57620   0.74556   1.000
    H32     H    0.41490   0.06435   0.64632   1.000
    H33     H    0.41491   0.56435   0.64632   1.000
    H34     H    0.91489   0.06435   0.64632   1.000
    H35     H    0.91490   0.56435   0.64632   1.000
    H36     H    0.00421   0.16564   0.65630   1.000
    H37     H    0.00422   0.66565   0.65636   1.000
    H38     H    0.50421   0.16564   0.65636   1.000
    H39     H    0.50421   0.66565   0.65636   1.000
    H40     H    0.09706   0.01460   0.62733   1.000
    H41     H    0.09707   0.51461   0.62733   1.000
    H42     H    0.59706   0.01460   0.62733   1.000
    H43     H    0.59706   0.51461   0.62733   1.000
    H44     H    0.07310   0.26878   0.75113   1.000
    H45     H    0.07310   0.76879   0.75112   1.000
    H46     H    0.57309   0.26879   0.75113   1.000
    H47     H    0.57310   0.76879   0.75112   1.000
    H48     H    0.38324   0.37641   0.51630   1.000
    H49     H    0.38325   0.87641   0.51630   1.000
    H50     H    0.88324   0.37641   0.51630   1.000
    H51     H    0.88324   0.87641   0.51630   1.000
    H52     H    0.51790   0.31955   0.66402   1.000
    H53     H    0.51790   0.81956   0.66402   1.000
    H54     H    0.00000   0.31955   0.66402   1.000
    H55     H    0.00000   0.81955   0.66401   1.000
    H56     H    0.05115   0.42360   0.75445   1.000
    H57     H    0.05116   0.92361   0.75444   1.000
    H58     H    0.55115   0.42360   0.75445   1.000
    H59     H    0.55115   0.92361   0.75445   1.000
    H60     H    0.35064   0.43565   0.85357   1.000
    H61     H    0.35065   0.93566   0.85357   1.000
    H62     H    0.85064   0.43565   0.85357   1.000
    H63     H    0.85064   0.93565   0.85357   1.000
    H64     H    0.33849   0.33442   0.84370   1.000
    H65     H    0.33849   0.83443   0.84370   1.000
    H66     H    0.83849   0.33442   0.84371   1.000
    H67     H    0.83849   0.83443   0.84370   1.000
    H68     H    0.08256   0.48533   0.87272   1.000
    H69     H    0.08256   0.98534   0.87272   1.000
    H70     H    0.58256   0.48533   0.87272   1.000
    H71     H    0.58256   0.98534   0.87272   1.000
    H72     H    0.30410   0.23126   0.74892   1.000
    H73     H    0.30410   0.73127   0.74891   1.000
    H74     H    0.80410   0.23126   0.74892   1.000
    H75     H    0.80410   0.73127   0.74891   1.000
    H76     H    0.00687   0.12355   0.98366   1.000
    H77     H    0.00687   0.62356   0.98366   1.000
    H78     H    0.50687   0.12355   0.98367   1.000
    H79     H    0.50687   0.62356   0.98366   1.000
    H80     H    0.30200   0.31981   0.16399   1.000
    H81     H    0.30201   0.81982   0.16399   1.000
    H82     H    0.80200   0.31981   0.16399   1.000
    H83     H    0.80200   0.81982   0.16399   1.000
    H84     H    0.37290   0.42383   0.25442   1.000
    H85     H    0.37291   0.92383   0.25442   1.000
    H86     H    0.87290   0.42383   0.25442   1.000
    H87     H    0.87290   0.92383   0.25442   1.000
    H88     H    0.08512   0.43567   0.35367   1.000
    H89     H    0.08513   0.93568   0.35366   1.000
    H90     H    0.58512   0.43567   0.35366   1.000
    H91     H    0.58512   0.93568   0.35366   1.000
    H92     H    0.49581   0.33438   0.34362   1.000
    H93     H    0.49581   0.83438   0.34362   1.000
    H94     H    0.99580   0.33438   0.34362   1.000
    H95     H    0.99581   0.83438   0.34360   1.000
    H96     H    0.40295   0.48542   0.37265   1.000
    H97     H    0.40296   0.98542   0.37265   1.000
    H98     H    0.90295   0.48541   0.37265   1.000
    H99     H    0.90295   0.98542   0.37265   1.000
    H100    H    0.42692   0.23123   0.24885   1.000
    H101    H    0.42693   0.73124   0.24885   1.000
    H102    H    0.92692   0.23123   0.24880   1.000
    H103    H    0.92692   0.73124   0.24885   1.000
    H104    H    0.11677   0.12362   0.48368   1.000
    H105    H    0.11678   0.62362   0.48368   1.000
    H106    H    0.61677   0.12362   0.48368   1.000
    H107    H    0.61677   0.62362   0.48368   1.000
    H108    H    0.98211   0.18047   0.33590   1.000
    H109    H    0.98212   0.68048   0.33596   1.000
    H110    H    0.48211   0.18047   0.33596   1.000
    H111    H    0.48212   0.68048   0.33596   1.000
    H112    H    0.44886   0.07642   0.24553   1.000
    H113    H    0.44886   0.57642   0.24553   1.000
    H114    H    0.94885   0.07641   0.24553   1.000
    H115    H    0.94886   0.57642   0.24553   1.000
    H116    H    0.14937   0.06437   0.14642   1.000
    H117    H    0.14938   0.56438   0.14641   1.000
    H118    H    0.64937   0.06437   0.14642   1.000
    H119    H    0.64937   0.56438   0.14641   1.000
    H120    H    0.16152   0.16559   0.15628   1.000
    H121    H    0.16152   0.66560   0.15627   1.000
    H122    H    0.66152   0.16559   0.15628   1.000
    H123    H    0.66152   0.66560   0.15627   1.000
    H124    H    0.41745   0.01468   0.12726   1.000
    H125    H    0.41746   0.51468   0.12725   1.000
    H126    H    0.91745   0.01468   0.12726   1.000
    H127    H    0.91745   0.51468   0.12725   1.000
    H128    H    0.19591   0.26876   0.25106   1.000
    H129    H    0.19592   0.76876   0.25100   1.000
    H130    H    0.69591   0.26875   0.25106   1.000
    H131    H    0.69591   0.76876   0.25106   1.000
    H132    H    0.49316   0.37647   0.01630   1.000
    H133    H    0.49316   0.87647   0.01631   1.000
    H134    H    0.99315   0.37647   0.01632   1.000
    H135    H    0.99316   0.87647   0.01631   1.000
    C136    C    0.15512   0.17714   0.79724   1.000
    C137    C    0.15512   0.67715   0.79724   1.000
    C138    C    0.65511   0.17714   0.79724   1.000
    C139    C    0.65512   0.67715   0.79724   1.000
    C140    C    0.02117   0.39078   0.54388   1.000
    C141    C    0.02117   0.89078   0.54387   1.000
    C142    C    0.52117   0.39078   0.54380   1.000
    C143    C    0.52117   0.89078   0.54380   1.000
    C144    C    0.11536   0.11835   0.74536   1.000
    C145    C    0.11536   0.61836   0.74536   1.000
    C146    C    0.61536   0.11835   0.74536   1.000
    C147    C    0.61536   0.61836   0.74536   1.000
    C148    C    0.43818   0.03094   0.62355   1.000
    C149    C    0.43818   0.53095   0.62355   1.000
    C150    C    0.93817   0.03094   0.62350   1.000
    C151    C    0.93818   0.53095   0.62355   1.000
    C152    C    0.39212   0.47003   0.57690   1.000
    C153    C    0.39213   0.97003   0.57697   1.000
    C154    C    0.89212   0.47003   0.57698   1.000
    C155    C    0.89212   0.97003   0.57698   1.000
    C156    C    0.04549   0.16786   0.69665   1.000
    C157    C    0.04549   0.66787   0.69664   1.000
    C158    C    0.54548   0.16786   0.69664   1.000
    C159    C    0.54549   0.66787   0.69664   1.000
    C160    C    0.05885   0.11213   0.69496   1.000
    C161    C    0.05886   0.61214   0.69495   1.000
    C162    C    0.55885   0.11213   0.69490   1.000
    C163    C    0.55885   0.61214   0.69495   1.000
    C164    C    0.03947   0.00265   0.61493   1.000
    C165    C    0.03947   0.50266   0.61493   1.000
    C166    C    0.53946   0.00265   0.61493   1.000
    C167    C    0.53947   0.50266   0.61493   1.000
    C168    C    0.49314   0.44084   0.56993   1.000
    C169    C    0.49315   0.94084   0.56990   1.000
    C170    C    0.99314   0.44084   0.56993   1.000
    C171    C    0.99314   0.94084   0.56993   1.000
    C172    C    0.01236   0.04823   0.64351   1.000
    C173    C    0.01236   0.54823   0.64350   1.000
    C174    C    0.51236   0.04823   0.64350   1.000
    C175    C    0.51236   0.54823   0.64350   1.000
    C176    C    0.08469   0.22631   0.74882   1.000
    C177    C    0.08469   0.72631   0.74881   1.000
    C178    C    0.58469   0.22631   0.74881   1.000
    C179    C    0.58469   0.72631   0.74881   1.000
    C180    C    0.13941   0.23149   0.80062   1.000
    C181    C    0.13941   0.73149   0.80061   1.000
    C182    C    0.63940   0.23149   0.80062   1.000
    C183    C    0.63941   0.73149   0.80061   1.000
    C184    C    0.17678   0.29366   0.85803   1.000
    C185    C    0.17679   0.79367   0.85803   1.000
    C186    C    0.67678   0.29366   0.85803   1.000
    C187    C    0.67678   0.79367   0.85803   1.000
    C188    C    0.41937   0.42440   0.55108   1.000
    C189    C    0.41938   0.92441   0.55108   1.000
    C190    C    0.91937   0.42440   0.55108   1.000
    C191    C    0.91937   0.92441   0.55108   1.000
    C192    C    0.31417   0.45329   0.55396   1.000
    C193    C    0.31417   0.95329   0.55390   1.000
    C194    C    0.81417   0.45329   0.55396   1.000
    C195    C    0.81417   0.95329   0.55396   1.000
    C196    C    0.47802   0.32270   0.70277   1.000
    C197    C    0.47803   0.82271   0.70277   1.000
    C198    C    0.97802   0.32270   0.70277   1.000
    C199    C    0.97803   0.82271   0.70276   1.000
    C200    C    0.13044   0.10923   0.95610   1.000
    C201    C    0.13044   0.60923   0.95615   1.000
    C202    C    0.63043   0.10922   0.95616   1.000
    C203    C    0.63044   0.60923   0.95616   1.000
    C204    C    0.49713   0.38151   0.75465   1.000
    C205    C    0.49713   0.88151   0.75465   1.000
    C206    C    0.99713   0.38151   0.75465   1.000
    C207    C    0.99713   0.88152   0.75465   1.000
    C208    C    0.40731   0.46904   0.87639   1.000
    C209    C    0.40731   0.96905   0.87639   1.000
    C210    C    0.90731   0.46904   0.87639   1.000
    C211    C    0.90731   0.96905   0.87630   1.000
    C212    C    0.42214   0.02995   0.92296   1.000
    C213    C    0.42214   0.52995   0.92296   1.000
    C214    C    0.92214   0.02995   0.92296   1.000
    C215    C    0.92214   0.52995   0.92296   1.000
    C216    C    0.37758   0.33214   0.80340   1.000
    C217    C    0.37758   0.83215   0.80339   1.000
    C218    C    0.87758   0.33214   0.80340   1.000
    C219    C    0.87758   0.83215   0.80339   1.000
    C220    C    0.44679   0.38781   0.80507   1.000
    C221    C    0.44679   0.88782   0.80507   1.000
    C222    C    0.94679   0.38781   0.80507   1.000
    C223    C    0.94679   0.88782   0.80507   1.000
    C224    C    0.03691   0.49730   0.88509   1.000
    C225    C    0.03691   0.99730   0.88509   1.000
    C226    C    0.53690   0.49730   0.88509   1.000
    C227    C    0.53690   0.99730   0.88509   1.000
    C228    C    0.05237   0.05912   0.93009   1.000
    C229    C    0.05238   0.55912   0.93009   1.000
    C230    C    0.55237   0.05912   0.93009   1.000
    C231    C    0.55237   0.55912   0.93009   1.000
    C232    C    0.46422   0.45174   0.85649   1.000
    C233    C    0.46423   0.95174   0.85649   1.000
    C234    C    0.96422   0.45174   0.85649   1.000
    C235    C    0.96422   0.95174   0.85649   1.000
    C236    C    0.35826   0.27369   0.75121   1.000
    C237    C    0.35826   0.77370   0.75121   1.000
    C238    C    0.85825   0.27369   0.75121   1.000
    C239    C    0.85826   0.77370   0.75121   1.000
    C240    C    0.40785   0.26843   0.69940   1.000
    C241    C    0.40785   0.76844   0.69940   1.000
    C242    C    0.90785   0.26843   0.69940   1.000
    C243    C    0.90785   0.76844   0.69940   1.000
    C244    C    0.38293   0.20627   0.64194   1.000
    C245    C    0.38293   0.70628   0.64194   1.000
    C246    C    0.88292   0.20627   0.64194   1.000
    C247    C    0.88293   0.70628   0.64193   1.000
    C248    C    0.49501   0.07556   0.94890   1.000
    C249    C    0.49502   0.57556   0.94889   1.000
    C250    C    0.99501   0.07556   0.94889   1.000
    C251    C    0.99501   0.57556   0.94889   1.000
    C252    C    0.36091   0.04671   0.94596   1.000
    C253    C    0.36092   0.54671   0.94596   1.000
    C254    C    0.86091   0.04671   0.94590   1.000
    C255    C    0.86091   0.54671   0.94596   1.000
    C256    C    0.34490   0.32288   0.20274   1.000
    C257    C    0.34491   0.82289   0.20274   1.000
    C258    C    0.84489   0.32288   0.20274   1.000
    C259    C    0.84490   0.82289   0.20274   1.000
    C260    C    0.47884   0.10924   0.45610   1.000
    C261    C    0.47885   0.60924   0.45610   1.000
    C262    C    0.97884   0.10924   0.45610   1.000
    C263    C    0.97884   0.60924   0.45610   1.000
    C264    C    0.38466   0.38167   0.25462   1.000
    C265    C    0.38467   0.88167   0.25462   1.000
    C266    C    0.88465   0.38167   0.25462   1.000
    C267    C    0.88466   0.88167   0.25462   1.000
    C268    C    0.06184   0.46908   0.37643   1.000
    C269    C    0.06185   0.96908   0.37643   1.000
    C270    C    0.56184   0.46908   0.37643   1.000
    C271    C    0.56184   0.96908   0.37643   1.000
    C272    C    0.10790   0.02999   0.42300   1.000
    C273    C    0.10790   0.52999   0.42300   1.000
    C274    C    0.60789   0.02999   0.42301   1.000
    C275    C    0.60790   0.53000   0.42300   1.000
    C276    C    0.45453   0.33216   0.30334   1.000
    C277    C    0.45454   0.83216   0.30333   1.000
    C278    C    0.95452   0.33215   0.30334   1.000
    C279    C    0.95453   0.83216   0.30333   1.000
    C280    C    0.44117   0.38789   0.30503   1.000
    C281    C    0.44117   0.88789   0.30502   1.000
    C282    C    0.94116   0.38789   0.30503   1.000
    C283    C    0.94117   0.88789   0.30502   1.000
    C284    C    0.46055   0.49737   0.38505   1.000
    C285    C    0.46056   0.99737   0.38500   1.000
    C286    C    0.96055   0.49736   0.38505   1.000
    C287    C    0.96055   0.99737   0.38505   1.000
    C288    C    0.00687   0.05918   0.43005   1.000
    C289    C    0.00688   0.55919   0.43005   1.000
    C290    C    0.50687   0.05918   0.43005   1.000
    C291    C    0.50687   0.55919   0.43005   1.000
    C292    C    0.48766   0.45179   0.35648   1.000
    C293    C    0.48766   0.95180   0.35647   1.000
    C294    C    0.98765   0.45179   0.35648   1.000
    C295    C    0.98766   0.95180   0.35647   1.000
    C296    C    0.41533   0.27371   0.25117   1.000
    C297    C    0.41533   0.77372   0.25116   1.000
    C298    C    0.91532   0.27371   0.25117   1.000
    C299    C    0.91533   0.77372   0.25116   1.000
    C300    C    0.36061   0.26853   0.19937   1.000
    C301    C    0.36062   0.76854   0.19936   1.000
    C302    C    0.86061   0.26853   0.19936   1.000
    C303    C    0.86061   0.76854   0.19936   1.000
    C304    C    0.32324   0.20636   0.14195   1.000
    C305    C    0.32324   0.70636   0.14194   1.000
    C306    C    0.82323   0.20636   0.14195   1.000
    C307    C    0.82324   0.70636   0.14195   1.000
    C308    C    0.08064   0.07562   0.44890   1.000
    C309    C    0.08065   0.57562   0.44890   1.000
    C310    C    0.58064   0.07562   0.44890   1.000
    C311    C    0.58064   0.57562   0.44890   1.000
    C312    C    0.18585   0.04674   0.44603   1.000
    C313    C    0.18585   0.54674   0.44603   1.000
    C314    C    0.68585   0.04674   0.44603   1.000
    C315    C    0.68585   0.54674   0.44603   1.000
    C316    C    0.02199   0.17732   0.29720   1.000
    C317    C    0.02199   0.67732   0.29721   1.000
    C318    C    0.52199   0.17732   0.29720   1.000
    C319    C    0.52199   0.67732   0.29721   1.000
    C320    C    0.36958   0.39079   0.04382   1.000
    C321    C    0.36959   0.89079   0.04382   1.000
    C322    C    0.86958   0.39079   0.04382   1.000
    C323    C    0.86958   0.89079   0.04382   1.000
    C324    C    0.00288   0.11851   0.24533   1.000
    C325    C    0.00289   0.61852   0.24532   1.000
    C326    C    0.50288   0.11851   0.24533   1.000
    C327    C    0.50288   0.61852   0.24532   1.000
    C328    C    0.09270   0.03098   0.12360   1.000
    C329    C    0.09271   0.53098   0.12300   1.000
    C330    C    0.59270   0.03098   0.12360   1.000
    C331    C    0.59270   0.53098   0.12359   1.000
    C332    C    0.07788   0.47007   0.07702   1.000
    C333    C    0.07788   0.97008   0.07702   1.000
    C334    C    0.57788   0.47007   0.07702   1.000
    C335    C    0.57788   0.97007   0.07702   1.000
    C336    C    0.12243   0.16788   0.19658   1.000
    C337    C    0.12243   0.66788   0.19658   1.000
    C338    C    0.62243   0.16787   0.19659   1.000
    C339    C    0.62243   0.66788   0.19658   1.000
    C340    C    0.05322   0.11221   0.19491   1.000
    C341    C    0.05322   0.61221   0.19491   1.000
    C342    C    0.55322   0.11221   0.19491   1.000
    C343    C    0.55322   0.61221   0.19491   1.000
    C344    C    0.46311   0.00272   0.11489   1.000
    C345    C    0.46311   0.50272   0.11488   1.000
    C346    C    0.96310   0.00272   0.11480   1.000
    C347    C    0.96311   0.50272   0.11488   1.000
    C348    C    0.44765   0.44090   0.06989   1.000
    C349    C    0.44765   0.94091   0.06980   1.000
    C350    C    0.94764   0.44090   0.06989   1.000
    C351    C    0.94765   0.94091   0.06989   1.000
    C352    C    0.03579   0.04828   0.14349   1.000
    C353    C    0.03579   0.54828   0.14349   1.000
    C354    C    0.53579   0.04828   0.14349   1.000
    C355    C    0.53579   0.54829   0.14349   1.000
    C356    C    0.14175   0.22633   0.24877   1.000
    C357    C    0.14176   0.72633   0.24876   1.000
    C358    C    0.64175   0.22632   0.24877   1.000
    C359    C    0.64176   0.72633   0.24876   1.000
    C360    C    0.09216   0.23159   0.30058   1.000
    C361    C    0.09217   0.73159   0.30057   1.000
    C362    C    0.59216   0.23159   0.30058   1.000
    C363    C    0.59217   0.73159   0.30058   1.000
    C364    C    0.11709   0.29375   0.35804   1.000
    C365    C    0.11709   0.79375   0.35804   1.000
    C366    C    0.61709   0.29375   0.35800   1.000
    C367    C    0.61709   0.79375   0.35804   1.000
    C368    C    0.00501   0.42446   0.05109   1.000
    C369    C    0.00501   0.92447   0.05109   1.000
    C370    C    0.50501   0.42447   0.05100   1.000
    C371    C    0.50501   0.92446   0.05109   1.000
    C372    C    0.13911   0.45332   0.05403   1.000
    C373    C    0.13912   0.95332   0.05403   1.000
    C374    C    0.63911   0.45332   0.05400   1.000
    C375    C    0.63911   0.95332   0.05403   1.000
    O376    O    0.22415   0.29881   0.91082   1.000
    O377    O    0.22415   0.79881   0.91082   1.000
    O378    O    0.72414   0.29881   0.91082   1.000
    O379    O    0.72415   0.79881   0.91082   1.000
    O380    O    0.16334   0.34235   0.85634   1.000
    O381    O    0.16334   0.84236   0.85634   1.000
    O382    O    0.66333   0.34235   0.85634   1.000
    O383    O    0.66334   0.84236   0.85634   1.000
    O384    O    0.27100   0.39384   0.52158   1.000
    O385    O    0.27100   0.89384   0.52158   1.000
    O386    O    0.77099   0.39383   0.52158   1.000
    O387    O    0.77100   0.89384   0.52158   1.000
    O388    O    0.29193   0.49850   0.56619   1.000
    O389    O    0.29193   0.99850   0.56619   1.000
    O390    O    0.79192   0.49849   0.56619   1.000
    O391    O    0.79193   0.99850   0.56619   1.000
    O392    O    0.47186   0.33237   0.51283   1.000
    O393    O    0.47186   0.83237   0.51283   1.000
    O394    O    0.97186   0.33237   0.51283   1.000
    O395    O    0.97186   0.83238   0.51283   1.000
    O396    O    0.08955   0.40745   0.55631   1.000
    O397    O    0.08955   0.90746   0.55631   1.000
    O398    O    0.58954   0.40745   0.55631   1.000
    O399    O    0.58955   0.90745   0.55631   1.000
    O400    O    0.42526   0.20102   0.58920   1.000
    O401    O    0.42527   0.70103   0.58920   1.000
    O402    O    0.92526   0.20102   0.58920   1.000
    O403    O    0.92526   0.70103   0.58920   1.000
    O404    O    0.32061   0.15771   0.64355   1.000
    O405    O    0.32061   0.65772   0.64355   1.000
    O406    O    0.82060   0.15771   0.64350   1.000
    O407    O    0.82061   0.65771   0.64355   1.000
    O408    O    0.37722   0.10618   0.97832   1.000
    O409    O    0.37722   0.60618   0.97832   1.000
    O410    O    0.87721   0.10617   0.97832   1.000
    O411    O    0.87721   0.60618   0.97832   1.000
    O412    O    0.29344   0.00150   0.93370   1.000
    O413    O    0.29344   0.50150   0.93375   1.000
    O414    O    0.79344   0.00150   0.93375   1.000
    O415    O    0.79344   0.50150   0.93375   1.000
    O416    O    0.13944   0.16759   0.98720   1.000
    O417    O    0.13944   0.66760   0.98720   1.000
    O418    O    0.63943   0.16759   0.98720   1.000
    O419    O    0.63944   0.66760   0.98720   1.000
    O420    O    0.18223   0.09264   0.94373   1.000
    O421    O    0.18223   0.59265   0.94373   1.000
    O422    O    0.68222   0.09264   0.94373   1.000
    O423    O    0.68222   0.59265   0.94373   1.000
    O424    O    0.27586   0.20121   0.08917   1.000
    O425    O    0.27587   0.70122   0.08916   1.000
    O426    O    0.77586   0.20121   0.08917   1.000
    O427    O    0.77587   0.70122   0.08916   1.000
    O428    O    0.33669   0.15767   0.14363   1.000
    O429    O    0.33670   0.65767   0.14363   1.000
    O430    O    0.83669   0.15767   0.14363   1.000
    O431    O    0.83669   0.65768   0.14363   1.000
    O432    O    0.22902   0.10619   0.47840   1.000
    O433    O    0.22902   0.60620   0.47840   1.000
    O434    O    0.72902   0.10619   0.47840   1.000
    O435    O    0.72902   0.60620   0.47840   1.000
    O436    O    0.20809   0.00153   0.43380   1.000
    O437    O    0.20810   0.50153   0.43380   1.000
    O438    O    0.70809   0.00153   0.43380   1.000
    O439    O    0.70809   0.50154   0.43380   1.000
    O440    O    0.02815   0.16765   0.48715   1.000
    O441    O    0.02816   0.66765   0.48714   1.000
    O442    O    0.52815   0.16765   0.48710   1.000
    O443    O    0.52815   0.66765   0.48714   1.000
    O444    O    0.41046   0.09256   0.44367   1.000
    O445    O    0.41047   0.59256   0.44367   1.000
    O446    O    0.91046   0.09256   0.44367   1.000
    O447    O    0.91046   0.59256   0.44367   1.000
    O448    O    0.07476   0.29900   0.41078   1.000
    O449    O    0.07476   0.79900   0.41070   1.000
    O450    O    0.57476   0.29900   0.41078   1.000
    O451    O    0.57476   0.79900   0.41078   1.000
    O452    O    0.17941   0.34231   0.35640   1.000
    O453    O    0.17942   0.84231   0.35642   1.000
    O454    O    0.67941   0.34231   0.35642   1.000
    O455    O    0.67941   0.84231   0.35642   1.000
    O456    O    0.12282   0.39386   0.02166   1.000
    O457    O    0.12282   0.89386   0.02166   1.000
    O458    O    0.62281   0.39386   0.02166   1.000
    O459    O    0.62281   0.89386   0.02166   1.000
    O460    O    0.20658   0.49853   0.06625   1.000
    O461    O    0.20659   0.99854   0.06625   1.000
    O462    O    0.70658   0.49853   0.06625   1.000
    O463    O    0.70658   0.99853   0.06620   1.000
    O464    O    0.36059   0.33242   0.01277   1.000
    O465    O    0.36060   0.83242   0.01277   1.000
    O466    O    0.86059   0.33242   0.01277   1.000
    O467    O    0.86059   0.83242   0.01277   1.000
    O468    O    0.31779   0.40736   0.05625   1.000
    O469    O    0.31780   0.90737   0.05625   1.000
    O470    O    0.81779   0.40736   0.05625   1.000
    O471    O    0.81779   0.90736   0.05625   1.000
loop_
    _geom_bond_atom_site_label_1
    _geom_bond_atom_site_label_2
    _geom_bond_distance
    _geom_bond_site_symmetry_2
    _ccdc_geom_bond_type
    O465   C321      1.28397      .   S
    O465   Cd17      2.17192  1_554   S
    O466   C322      1.28399      .   S
    O466   Cd18      2.17182      .   S
    O467   C323      1.28399      .   S
    O467   Cd19      2.17180  1_554   S
    O464   C320      1.28401      .   S
    O464   Cd16      2.17181      .   S
    H132   C370      1.08657      .   S
    H133   C371      1.08709      .   S
    H135   C369      1.08709  1_655   S
    H134   C368      1.08701  1_655   S
    O456   C372      1.27284      .   S
    O456   Cd0       2.26664  1_554   S
    O457   C373      1.27286      .   S
    O457   Cd1       2.26664  1_554   S
    O458   C374      1.27273      .   S
    O458   Cd2       2.26663  1_554   S
    O459   C375      1.27282      .   S
    O459   Cd3       2.26665  1_554   S
    Cd10   O463      2.25241  1_545   S
    Cd10   O430      2.37296      .   S
    Cd10   O422      2.29572  1_554   S
    Cd10   O410      2.26667  1_554   S
    Cd11   O462      2.25294      .   S
    Cd11   O431      2.37297      .   S
    Cd11   O423      2.29571  1_554   S
    Cd11   O411      2.26669  1_554   S
    Cd9    O460      2.25296      .   S
    Cd9    O429      2.37294      .   S
    Cd9    O421      2.29569  1_554   S
    Cd9    O409      2.26667  1_554   S
    Cd8    O461      2.25280  1_545   S
    Cd8    O428      2.37296      .   S
    Cd8    O420      2.29571  1_554   S
    Cd8    O408      2.26668  1_554   S
    C323   O471      1.27392      .   S
    C323   C351      1.49756      .   S
    C320   O468      1.27389      .   S
    C320   C348      1.49757      .   S
    C321   O469      1.27393      .   S
    C321   C349      1.49728      .   S
    C322   O470      1.27390      .   S
    C322   C350      1.49758      .   S
    C370   C348      1.39884      .   S
    C370   C334      1.39794      .   S
    C371   C349      1.39823      .   S
    C371   C335      1.39763      .   S
    C369   C351      1.39871  1_455   S
    C369   C333      1.39761      .   S
    C368   C350      1.39870  1_455   S
    C368   C332      1.39761      .   S
    C374   O462      1.28530      .   S
    C374   C334      1.49378      .   S
    C372   O460      1.28530      .   S
    C372   C332      1.49368      .   S
    C373   O461      1.28528      .   S
    C373   C333      1.49369      .   S
    C375   O463      1.28525      .   S
    C375   C335      1.49371      .   S
    O468   Cd0       2.29576  1_554   S
    O469   Cd1       2.29576  1_554   S
    O470   Cd2       2.29576  1_554   S
    O471   Cd3       2.29573  1_554   S
    C349   C344      1.40136  1_565   S
    C348   C345      1.40073      .   S
    C350   C347      1.40074      .   S
    C351   C346      1.40003  1_565   S
    C335   C330      1.39906  1_565   S
    C334   C331      1.39910      .   S
    C333   C328      1.39907  1_565   S
    C332   C329      1.39452      .   S
    O427   C307      1.30890      .   S
    O427   Cd19      2.29193  1_554   S
    O425   C305      1.30878      .   S
    O425   Cd17      2.29204  1_554   S
    O424   C304      1.30879      .   S
    O424   Cd16      2.29192      .   S
    O426   C306      1.30874      .   S
    O426   Cd18      2.29192      .   S
    C346   H126      1.08981      .   S
    C346   C352      1.40594  1_655   S
    C347   H127      1.08953      .   S
    C347   C353      1.40559  1_655   S
    C345   H125      1.08953      .   S
    C345   C355      1.40546      .   S
    C344   H124      1.08952      .   S
    C344   C354      1.40542      .   S
    C329   C353      1.40808      .   S
    C329   H117      1.09197      .   S
    C331   C355      1.40582      .   S
    C331   H119      1.08914      .   S
    C328   C352      1.40577      .   S
    C328   H116      1.08914      .   S
    C330   C354      1.40577      .   S
    C330   H118      1.08914      .   S
    C305   O429      1.26116      .   S
    C305   C301      1.48459      .   S
    C307   O431      1.26113      .   S
    C307   C303      1.48452      .   S
    C304   O428      1.26113      .   S
    C304   C300      1.48461      .   S
    C306   O430      1.26117      .   S
    C306   C302      1.48454      .   S
    C355   C343      1.48076      .   S
    C354   C342      1.48081      .   S
    C353   C341      1.48080      .   S
    C352   C340      1.48078      .   S
    H123   C339      1.08917      .   S
    H121   C337      1.08916      .   S
    H120   C336      1.08905      .   S
    H122   C338      1.08916      .   S
    H80    C256      1.08841      .   S
    H81    C257      1.08841      .   S
    H82    C258      1.08837      .   S
    H83    C259      1.08840      .   S
    C340   C336      1.40856      .   S
    C340   C324      1.40721      .   S
    C341   C337      1.40856      .   S
    C341   C325      1.40708      .   S
    C342   C338      1.40853      .   S
    C342   C326      1.40720      .   S
    C343   C339      1.40856      .   S
    C343   C327      1.40711      .   S
    C336   C356      1.38785      .   S
    C337   C357      1.38777      .   S
    C339   C359      1.38777      .   S
    C338   C358      1.38777      .   S
    C302   C258      1.40287      .   S
    C302   C298      1.40470      .   S
    C303   C259      1.40286      .   S
    C303   C299      1.40461      .   S
    C301   C257      1.40286      .   S
    C301   C297      1.40464      .   S
    C300   C256      1.40287      .   S
    C300   C296      1.40461      .   S
    C259   C267      1.39153      .   S
    C258   C266      1.39154      .   S
    C257   C265      1.39153      .   S
    C256   C264      1.39155      .   S
    C325   H115      1.08968  1_455   S
    C325   C317      1.39158      .   S
    C327   H113      1.08956      .   S
    C327   C319      1.39157      .   S
    C324   H114      1.08964  1_455   S
    C324   C316      1.39139      .   S
    C326   H112      1.08953      .   S
    C326   C318      1.39139      .   S
    C359   H131      1.08854      .   S
    C359   C363      1.40467      .   S
    C357   H129      1.08863      .   S
    C357   C361      1.40458      .   S
    C356   H128      1.08855      .   S
    C356   C360      1.40457      .   S
    C358   H130      1.08854      .   S
    C358   C362      1.40464      .   S
    H102   C298      1.08842      .   S
    H100   C296      1.08852      .   S
    H101   C297      1.08855      .   S
    H103   C299      1.08854      .   S
    C299   C279      1.38792      .   S
    C297   C277      1.38791      .   S
    C298   C278      1.38792      .   S
    C296   C276      1.38792      .   S
    H85    C265      1.08954      .   S
    H84    C264      1.08955      .   S
    H87    C267      1.08956      .   S
    H86    C266      1.08955      .   S
    C264   C280      1.40722      .   S
    C265   C281      1.40709      .   S
    C266   C282      1.40721      .   S
    C267   C283      1.40711      .   S
    C318   C362      1.40284      .   S
    C318   H110      1.08861      .   S
    C316   C360      1.40285      .   S
    C316   H108      1.08789  1_455   S
    C317   C361      1.40288      .   S
    C317   H109      1.08845  1_455   S
    C319   C363      1.40286      .   S
    C319   H111      1.08846      .   S
    C361   C365      1.48453      .   S
    C363   C367      1.48448      .   S
    C362   C366      1.48402      .   S
    C360   C364      1.48445      .   S
    C277   C281      1.40859      .   S
    C277   H93       1.08927      .   S
    C279   C283      1.40857      .   S
    C279   H95       1.08905      .   S
    C278   C282      1.40858      .   S
    C278   H94       1.08915      .   S
    C276   C280      1.40857      .   S
    C276   H92       1.08915      .   S
    C283   C295      1.48079      .   S
    C281   C293      1.48081      .   S
    C280   C292      1.48083      .   S
    C282   C294      1.48080      .   S
    H90    C270      1.08914      .   S
    H89    C269      1.08913      .   S
    H91    C271      1.08915      .   S
    H88    C268      1.08911      .   S
    O452   C364      1.26112      .   S
    O452   Cd12      2.37445      .   S
    O454   C366      1.26092      .   S
    O454   Cd14      2.37416      .   S
    O453   C365      1.26108      .   S
    O453   Cd13      2.37417      .   S
    O455   C367      1.26107      .   S
    O455   Cd15      2.37419      .   S
    C293   C271      1.40579      .   S
    C293   C285      1.40523      .   S
    C295   C269      1.40597  1_655   S
    C295   C287      1.40543      .   S
    C292   C270      1.40577      .   S
    C292   C284      1.40539      .   S
    C294   C268      1.40592  1_655   S
    C294   C286      1.40539      .   S
    C366   O450      1.30951      .   S
    C364   O448      1.30894      .   S
    C365   O449      1.30794      .   S
    C367   O451      1.30895      .   S
    H96    C284      1.08953      .   S
    H97    C285      1.08936      .   S
    H98    C286      1.08954      .   S
    H99    C287      1.08953      .   S
    C270   C275      1.39912      .   S
    C271   C274      1.39905  1_565   S
    C269   C272      1.39899  1_565   S
    C268   C273      1.39914      .   S
    C285   C290      1.40095  1_565   S
    C287   C288      1.40063  1_665   S
    C284   C291      1.40073      .   S
    C286   C289      1.40079  1_655   S
    O449   Cd21      2.29362      .   S
    O448   Cd20      2.29249      .   S
    O450   Cd22      2.29249      .   S
    O451   Cd23      2.29248      .   S
    C273   C313      1.49373      .   S
    C273   C309      1.39776      .   S
    C272   C312      1.49374      .   S
    C272   C308      1.39777      .   S
    C275   C315      1.49376      .   S
    C275   C311      1.39778      .   S
    C274   C314      1.49372      .   S
    C274   C310      1.39775      .   S
    C288   C308      1.39854      .   S
    C288   C262      1.49772  1_455   S
    C289   C309      1.39852      .   S
    C289   C263      1.49774  1_455   S
    C290   C310      1.39857      .   S
    C290   C260      1.49762      .   S
    C291   C311      1.39855      .   S
    C291   C261      1.49758      .   S
    O439   C315      1.28539      .   S
    O439   Cd14      2.25291      .   S
    O438   C314      1.28541      .   S
    O438   Cd15      2.25281  1_545   S
    O437   C313      1.28540      .   S
    O437   Cd12      2.25287      .   S
    O436   C312      1.28542      .   S
    O436   Cd13      2.25279  1_545   S
    O445   C261      1.27380      .   S
    O445   Cd5       2.29546      .   S
    O446   C262      1.27378      .   S
    O446   Cd6       2.29545      .   S
    O447   C263      1.27378      .   S
    O447   Cd7       2.29545      .   S
    O444   C260      1.27379      .   S
    O444   Cd4       2.29546      .   S
    C312   O432      1.27276      .   S
    C313   O433      1.27278      .   S
    C314   O434      1.27274      .   S
    C315   O435      1.27275      .   S
    C311   H107      1.08710      .   S
    C310   H106      1.08710      .   S
    C309   H105      1.08714      .   S
    C308   H104      1.08712      .   S
    C260   O442      1.28373      .   S
    C261   O443      1.28393      .   S
    C262   O440      1.28405  1_655   S
    C263   O441      1.28402  1_655   S
    Cd12   O384      2.26667      .   S
    Cd12   O396      2.29547      .   S
    Cd15   O387      2.26665      .   S
    Cd15   O399      2.29549      .   S
    Cd14   O386      2.26664      .   S
    Cd14   O398      2.29548      .   S
    Cd13   O385      2.26665      .   S
    Cd13   O397      2.29548      .   S
    O435   Cd7       2.26666      .   S
    O434   Cd6       2.26668      .   S
    O433   Cd5       2.26667      .   S
    O432   Cd4       2.26669      .   S
    O442   Cd22      2.17141      .   S
    O441   Cd21      2.17167      .   S
    O443   Cd23      2.17144      .   S
    O440   Cd20      2.17146      .   S
    Cd21   O395      2.17135  1_455   S
    Cd21   O403      2.29252  1_455   S
    Cd23   O393      2.17146      .   S
    Cd23   O401      2.29242      .   S
    Cd22   O392      2.17148      .   S
    Cd22   O400      2.29244      .   S
    Cd20   O394      2.17156  1_455   S
    Cd20   O402      2.29250  1_455   S
    O394   C140      1.28402  1_655   S
    O392   C142      1.28359      .   S
    O393   C143      1.28359      .   S
    O395   C141      1.28397  1_655   S
    H48    C188      1.08712      .   S
    H49    C189      1.08709      .   S
    H50    C190      1.08711      .   S
    H51    C191      1.08711      .   S
    O384   C192      1.27278      .   S
    O386   C194      1.27278      .   S
    O387   C195      1.27278      .   S
    O385   C193      1.27248      .   S
    Cd4    O389      2.25279  1_545   S
    Cd4    O404      2.37401      .   S
    Cd7    O390      2.25290      .   S
    Cd7    O407      2.37397      .   S
    Cd6    O391      2.25279  1_545   S
    Cd6    O406      2.37329      .   S
    Cd5    O388      2.25289      .   S
    Cd5    O405      2.37402      .   S
    C142   O398      1.27398      .   S
    C142   C168      1.49788      .   S
    C143   O399      1.27397      .   S
    C143   C169      1.49777      .   S
    C141   O397      1.27381      .   S
    C141   C171      1.49776  1_455   S
    C140   O396      1.27380      .   S
    C140   C170      1.49775  1_455   S
    C188   C168      1.39855      .   S
    C188   C152      1.39745      .   S
    C191   C171      1.39855      .   S
    C191   C155      1.39776      .   S
    C190   C170      1.39854      .   S
    C190   C154      1.39777      .   S
    C189   C169      1.39846      .   S
    C189   C153      1.39773      .   S
    C193   O389      1.28543      .   S
    C193   C153      1.49393      .   S
    C195   O391      1.28539      .   S
    C195   C155      1.49372      .   S
    C194   O390      1.28539      .   S
    C194   C154      1.49373      .   S
    C192   O388      1.28539      .   S
    C192   C152      1.49338      .   S
    C169   C166      1.40081  1_565   S
    C168   C167      1.40073      .   S
    C170   C165      1.40076  1_655   S
    C171   C164      1.40064  1_665   S
    C152   C149      1.39974      .   S
    C153   C148      1.39906  1_565   S
    C154   C151      1.39909      .   S
    C155   C150      1.39859  1_565   S
    O403   C247      1.30883      .   S
    O400   C244      1.30896      .   S
    O402   C246      1.30899      .   S
    O401   C245      1.30897      .   S
    C167   H43       1.08952      .   S
    C167   C175      1.40540      .   S
    C166   H42       1.08952      .   S
    C166   C174      1.40540      .   S
    C165   H41       1.08952      .   S
    C165   C173      1.40538      .   S
    C164   H40       1.08954      .   S
    C164   C172      1.40542      .   S
    C150   C172      1.40616  1_655   S
    C150   H34       1.08937      .   S
    C151   C173      1.40595  1_655   S
    C151   H35       1.08914      .   S
    C148   C174      1.40577      .   S
    C148   H32       1.08912      .   S
    C149   C175      1.40577      .   S
    C149   H33       1.08912      .   S
    C247   O407      1.26106      .   S
    C247   C243      1.48453      .   S
    C244   O404      1.26106      .   S
    C244   C240      1.48445      .   S
    C245   O405      1.26104      .   S
    C245   C241      1.48445      .   S
    C246   O406      1.26090      .   S
    C246   C242      1.48442      .   S
    C173   C161      1.48084      .   S
    C174   C162      1.48040      .   S
    C175   C163      1.48083      .   S
    C172   C160      1.48083      .   S
    H36    C156      1.09000      .   S
    H38    C158      1.08915      .   S
    H37    C157      1.08915      .   S
    H39    C159      1.08916      .   S
    H55    C199      0.84025  1_455   S
    H53    C197      1.08847      .   S
    H52    C196      1.08847      .   S
    H54    C198      0.84034  1_455   S
    C162   C158      1.40845      .   S
    C162   C146      1.40779      .   S
    C163   C159      1.40857      .   S
    C163   C147      1.40722      .   S
    C161   C157      1.40857      .   S
    C161   C145      1.40721      .   S
    C160   C156      1.40858      .   S
    C160   C144      1.40711      .   S
    C157   C177      1.38792      .   S
    C158   C178      1.38792      .   S
    C159   C179      1.38792      .   S
    C156   C176      1.38792      .   S
    C240   C196      1.40285      .   S
    C240   C236      1.40457      .   S
    C241   C197      1.40286      .   S
    C241   C237      1.40457      .   S
    C242   C198      1.40285      .   S
    C242   C238      1.40460      .   S
    C243   C199      1.40288      .   S
    C243   C239      1.40461      .   S
    C199   C207      1.39157      .   S
    C197   C205      1.39147      .   S
    C196   C204      1.39147      .   S
    C198   C206      1.39149      .   S
    C145   H29       1.08955      .   S
    C145   C137      1.39153      .   S
    C144   H28       1.08955      .   S
    C144   C136      1.39153      .   S
    C146   H30       1.08954      .   S
    C146   C138      1.39153      .   S
    C147   H31       1.08954      .   S
    C147   C139      1.39153      .   S
    C179   H47       1.08854      .   S
    C179   C183      1.40461      .   S
    C178   H46       1.08853      .   S
    C178   C182      1.40472      .   S
    C177   H45       1.08857      .   S
    C177   C181      1.40462      .   S
    C176   H44       1.08854      .   S
    C176   C180      1.40462      .   S
    H73    C237      1.08853      .   S
    H75    C239      1.08852      .   S
    H74    C238      1.08855      .   S
    H72    C236      1.08854      .   S
    C236   C216      1.38786      .   S
    C239   C219      1.38776      .   S
    C238   C218      1.38786      .   S
    C237   C217      1.38778      .   S
    H57    C207      1.08966  1_455   S
    H59    C205      1.08954      .   S
    H56    C206      1.08963  1_455   S
    H58    C204      1.08953      .   S
    C205   C221      1.40721      .   S
    C204   C220      1.40720      .   S
    C206   C222      1.40720      .   S
    C207   C223      1.40720      .   S
    C139   C183      1.40287      .   S
    C139   H27       1.08839      .   S
    C138   C182      1.40288      .   S
    C138   H26       1.08839      .   S
    C137   C181      1.40287      .   S
    C137   H25       1.08840      .   S
    C136   C180      1.40287      .   S
    C136   H24       1.08840      .   S
    C181   C185      1.48460      .   S
    C183   C187      1.48462      .   S
    C182   C186      1.48451      .   S
    C180   C184      1.48452      .   S
    C217   C221      1.40854      .   S
    C217   H65       1.08918      .   S
    C219   C223      1.40854      .   S
    C219   H67       1.08917      .   S
    C216   C220      1.40856      .   S
    C216   H64       1.08905      .   S
    C218   C222      1.40856      .   S
    C218   H66       1.08916      .   S
    C220   C232      1.48077      .   S
    C221   C233      1.48074      .   S
    C222   C234      1.48079      .   S
    C223   C235      1.48078      .   S
    H60    C208      1.08916      .   S
    H61    C209      1.08915      .   S
    H62    C210      1.08915      .   S
    H63    C211      1.08871      .   S
    O380   C184      1.26113      .   S
    O380   Cd0       2.37305      .   S
    O381   C185      1.26114      .   S
    O381   Cd1       2.37304      .   S
    O382   C186      1.26115      .   S
    O382   Cd2       2.37304      .   S
    O383   C187      1.26115      .   S
    O383   Cd3       2.37304      .   S
    C235   C211      1.40548      .   S
    C235   C225      1.40556  1_655   S
    C234   C210      1.40581      .   S
    C234   C224      1.40555  1_655   S
    C233   C209      1.40581      .   S
    C233   C227      1.40543      .   S
    C232   C208      1.40579      .   S
    C232   C226      1.40543      .   S
    C184   O376      1.30883      .   S
    C185   O377      1.30883      .   S
    C186   O378      1.30882      .   S
    C187   O379      1.30883      .   S
    H68    C224      1.08954      .   S
    H69    C225      1.08952      .   S
    H70    C226      1.08954      .   S
    H71    C227      1.08952      .   S
    C211   C214      1.39970  1_565   S
    C208   C213      1.39911      .   S
    C210   C215      1.39909      .   S
    C209   C212      1.39902  1_565   S
    C227   C230      1.40071  1_565   S
    C226   C231      1.40080      .   S
    C225   C228      1.40069  1_565   S
    C224   C229      1.40078      .   S
    O376   Cd16      2.29213  1_556   S
    O379   Cd19      2.29198      .   S
    O378   Cd18      2.29214  1_556   S
    O377   Cd17      2.29191      .   S
    C215   C255      1.49372      .   S
    C215   C251      1.39763      .   S
    C214   C254      1.49345      .   S
    C214   C250      1.39763      .   S
    C213   C253      1.49371      .   S
    C213   C249      1.39762      .   S
    C212   C252      1.49369      .   S
    C212   C248      1.39765      .   S
    C228   C250      1.39870  1_455   S
    C228   C200      1.49738      .   S
    C231   C249      1.39851      .   S
    C231   C203      1.49758      .   S
    C230   C248      1.39855      .   S
    C230   C202      1.49758      .   S
    C229   C251      1.39871  1_455   S
    C229   C201      1.49756      .   S
    O412   C252      1.28533      .   S
    O412   Cd1       2.25328  1_545   S
    O413   C253      1.28530      .   S
    O413   Cd0       2.25296      .   S
    O415   C255      1.28531      .   S
    O415   Cd2       2.25296      .   S
    O414   C254      1.28527      .   S
    O414   Cd3       2.25281  1_545   S
    O423   C203      1.27391      .   S
    O422   C202      1.27391      .   S
    O421   C201      1.27391      .   S
    O420   C200      1.27379      .   S
    C254   O410      1.27312      .   S
    C255   O411      1.27283      .   S
    C253   O409      1.27285      .   S
    C252   O408      1.27285      .   S
    C251   H77       1.08701  1_655   S
    C250   H76       1.08701  1_655   S
    C249   H79       1.08709      .   S
    C248   H78       1.08708      .   S
    C200   O416      1.28423      .   S
    C201   O417      1.28397      .   S
    C202   O418      1.28396      .   S
    C203   O419      1.28396      .   S
    O416   Cd16      2.17191  1_556   S
    O417   Cd17      2.17182      .   S
    O418   Cd18      2.17190  1_556   S
    O419   Cd19      2.17191      .   S
    O376   Cd0       2.43755      .   S
    O377   Cd1       2.43751      .   S
    O378   Cd2       2.43753      .   S
    O379   Cd3       2.43752      .   S
    O400   Cd4       2.43611      .   S
    O401   Cd5       2.43613      .   S
    O402   Cd6       2.43610      .   S
    O403   Cd7       2.43613      .   S
    O424   Cd8       2.43762      .   S
    O425   Cd9       2.43757      .   S
    O426   Cd10      2.43762      .   S
    O427   Cd11      2.43759      .   S
    O448   Cd12      2.43609      .   S
    O449   Cd13      2.43649      .   S
    O450   Cd14      2.43604      .   S
    O451   Cd15      2.43605      .   S
