# CIF file generated by openbabel 2.4.90, see http://openbabel.sf.net
data_I
_chemical_name_common ''
_cell_length_a 7.816
_cell_length_b 10.681
_cell_length_c 17.955
_cell_angle_alpha 89.939
_cell_angle_beta 89.762
_cell_angle_gamma 89.996
_space_group_name_H-M_alt 'P 1'
_space_group_name_Hall 'P 1'
loop_
    _symmetry_equiv_pos_as_xyz
    x,y,z
loop_
    _atom_site_label
    _atom_site_type_symbol
    _atom_site_fract_x
    _atom_site_fract_y
    _atom_site_fract_z
    _atom_site_occupancy
    P0      P    0.15746   0.42913   0.70685   1.000
    P1      P    0.34578   0.92940   0.79284   1.000
    P2      P    0.84254   0.56965   0.29304   1.000
    P3      P    0.65382   0.06959   0.20710   1.000
    H4      H    0.90161   0.38338   0.81298   1.000
    H5      H    0.77987   0.44981   0.74186   1.000
    H6      H    0.00954   0.30010   0.58264   1.000
    H7      H    0.82303   0.22567   0.61454   1.000
    H8      H    0.66276   0.42056   0.62094   1.000
    H9      H    0.84899   0.51297   0.61611   1.000
    H10     H    0.60226   0.88385   0.68699   1.000
    H11     H    0.72377   0.94970   0.75828   1.000
    H12     H    0.49306   0.79862   0.91709   1.000
    H13     H    0.68102   0.72613   0.88530   1.000
    H14     H    0.83830   0.92217   0.87992   1.000
    H15     H    0.65258   0.01456   0.88355   1.000
    H16     H    0.09934   0.61656   0.18724   1.000
    H17     H    0.22183   0.55075   0.25831   1.000
    H18     H    0.99007   0.69862   0.41764   1.000
    H19     H    0.17687   0.77293   0.38592   1.000
    H20     H    0.33644   0.57764   0.37908   1.000
    H21     H    0.14988   0.48564   0.38389   1.000
    H22     H    0.39673   0.11545   0.31296   1.000
    H23     H    0.27439   0.05003   0.24178   1.000
    H24     H    0.50632   0.19916   0.08271   1.000
    H25     H    0.31895   0.27259   0.11439   1.000
    H26     H    0.16039   0.07688   0.12047   1.000
    H27     H    0.34927   0.98687   0.11644   1.000
    C28     C    0.83848   0.36153   0.76003   1.000
    C29     C    0.96923   0.31615   0.70139   1.000
    C30     C    0.89999   0.31090   0.62051   1.000
    C31     C    0.79306   0.42454   0.59698   1.000
    C32     C    0.66508   0.86160   0.73998   1.000
    C33     C    0.53388   0.81613   0.79847   1.000
    C34     C    0.60265   0.81072   0.87939   1.000
    C35     C    0.70732   0.92520   0.90321   1.000
    C36     C    0.16214   0.63869   0.24021   1.000
    C37     C    0.03066   0.68304   0.29886   1.000
    C38     C    0.09966   0.68785   0.37978   1.000
    C39     C    0.20621   0.57387   0.40313   1.000
    C40     C    0.33403   0.13787   0.25997   1.000
    C41     C    0.46548   0.18260   0.20140   1.000
    C42     C    0.39669   0.18772   0.12047   1.000
    C43     C    0.29108   0.07352   0.09692   1.000
    O44     O    0.23810   0.41223   0.78500   1.000
    O45     O    0.07448   0.56127   0.70016   1.000
    O46     O    0.28058   0.40037   0.64354   1.000
    O47     O    0.26507   0.91246   0.71475   1.000
    O48     O    0.42907   0.06252   0.79957   1.000
    O49     O    0.22289   0.90118   0.85634   1.000
    O50     O    0.76192   0.58672   0.21491   1.000
    O51     O    0.92568   0.43756   0.29964   1.000
    O52     O    0.71928   0.59767   0.35641   1.000
    O53     O    0.73428   0.08621   0.28529   1.000
    O54     O    0.57105   0.93853   0.20068   1.000
    O55     O    0.77685   0.09860   0.14381   1.000
loop_
    _geom_bond_atom_site_label_1
    _geom_bond_atom_site_label_2
    _geom_bond_distance
    _geom_bond_site_symmetry_2
    _ccdc_geom_bond_type
    H24    C42       1.09722      .   S
    C43    H27       1.08939  1_545   S
    C43    C42       1.53368      .   S
    C43    H26       1.10462      .   S
    H25    C42       1.09686      .   S
    C42    C41       1.55231      .   S
    O55    P3        1.51731      .   S
    H16    C36       1.09818      .   S
    O54    P3        1.54676  1_565   S
    C41    P3        1.90659      .   S
    C41    C40       1.54270      .   S
    P3     O53       1.55109      .   S
    O50    P2        1.55068      .   S
    C36    H17       1.09825      .   S
    C36    C37       1.54313      .   S
    H23    C40       1.09827      .   S
    C40    H22       1.09816      .   S
    P2     C37       1.90821  1_655   S
    P2     O51       1.55789      .   S
    P2     O52       1.51790      .   S
    C37    C38       1.55282      .   S
    H20    C39       1.10472      .   S
    C38    H19       1.09686      .   S
    C38    C39       1.53397      .   S
    C38    H18       1.09737  1_455   S
    H21    C39       1.09686      .   S
    H6     C30       1.09735  1_455   S
    C31    H9        1.09688      .   S
    C31    C30       1.53355      .   S
    C31    H8        1.10475      .   S
    H7     C30       1.09668      .   S
    C30    C29       1.55298      .   S
    O46    P0        1.51793      .   S
    H10    C32       1.09823      .   S
    O45    P0        1.55795      .   S
    C29    P0        1.90577  1_655   S
    C29    C28       1.54276      .   S
    P0     O44       1.55101      .   S
    O47    P1        1.55061      .   S
    C32    H11       1.09812      .   S
    C32    C33       1.54296      .   S
    H5     C28       1.09816      .   S
    C28    H4        1.09818      .   S
    P1     C33       1.90690      .   S
    P1     O48       1.56886  1_565   S
    P1     O49       1.51779      .   S
    C33    C34       1.55213      .   S
    C34    H13       1.09681      .   S
    C34    C35       1.53343      .   S
    C34    H12       1.09717      .   S
    H14    C35       1.10469      .   S
    H15    C35       1.10419  1_545   S
