# CIF file generated by openbabel 2.4.90, see http://openbabel.sf.net
data_I
_chemical_name_common ''
_cell_length_a 7.816
_cell_length_b 10.681
_cell_length_c 17.955
_cell_angle_alpha 89.939
_cell_angle_beta 89.762
_cell_angle_gamma 89.996
_space_group_name_H-M_alt 'P 1'
_space_group_name_Hall 'P 1'
loop_
    _symmetry_equiv_pos_as_xyz
    x,y,z
loop_
    _atom_site_label
    _atom_site_type_symbol
    _atom_site_fract_x
    _atom_site_fract_y
    _atom_site_fract_z
    _atom_site_occupancy
    N0      N    0.05161   0.60551   0.32129   1.000
    N1      N    0.44495   0.10540   0.17889   1.000
    N2      N    0.94837   0.39347   0.67882   1.000
    N3      N    0.55448   0.89387   0.82112   1.000
    Zr4     Zr   0.67605   0.86712   0.17318   1.000
    O5      O    0.60689   0.92274   0.17464   1.000
    O6      O    0.65603   0.88973   0.02807   1.000
    Zr7     Zr   0.32431   0.13292   0.82694   1.000
    O8      O    0.34350   0.10978   0.97202   1.000
    O9      O    0.39312   0.07724   0.82550   1.000
    Zr10    Zr   0.82113   0.36609   0.32700   1.000
    O11     O    0.88997   0.42202   0.32558   1.000
    O12     O    0.84304   0.38890   0.47205   1.000
    Zr13    Zr   0.17890   0.63290   0.67293   1.000
    O14     O    0.15683   0.60989   0.52796   1.000
    O15     O    0.11004   0.57694   0.67438   1.000
    O16     O    0.83099   0.75857   0.22180   1.000
    O17     O    0.15240   0.23672   0.77169   1.000
    O18     O    0.64904   0.26225   0.27174   1.000
    O19     O    0.33398   0.74122   0.72156   1.000
loop_
    _geom_bond_atom_site_label_1
    _geom_bond_atom_site_label_2
    _geom_bond_distance
    _geom_bond_site_symmetry_2
    _ccdc_geom_bond_type
    Zr4    O5        0.80358      .   S
    N1     O5        2.32666  1_545   S
    Zr4    O6        2.62154      .   S
    N3     O6        3.80312  1_556   S
    Zr7    O8        2.62130      .   S
    N1     O8        3.80143  1_554   S
    Zr7    O9        0.80218      .   S
    N3     O9        2.33066  1_565   S
    Zr10   O11       0.80428      .   S
    N0     O11       2.33294  1_455   S
    Zr10   O12       2.62239      .   S
    N2     O12       3.80638      .   S
    Zr13   O14       2.62114      .   S
    N0     O14       3.80445      .   S
    Zr13   O15       0.80465      .   S
    N2     O15       2.33289  1_655   S
    N0     O16       2.97588  1_455   S
    Zr4    O16       1.89196      .   S
    N2     O17       2.85353  1_655   S
    Zr7    O17       2.00667      .   S
    Zr10   O18       2.00934      .   S
    N1     O18       2.85642      .   S
    N3     O19       2.97598      .   S
    Zr13   O19       1.89248      .   S
