# CIF file generated by openbabel 2.4.90, see http://openbabel.sf.net
data_I
_chemical_name_common ''
_cell_length_a 7.816
_cell_length_b 10.681
_cell_length_c 17.955
_cell_angle_alpha 89.939
_cell_angle_beta 89.762
_cell_angle_gamma 89.996
_space_group_name_H-M_alt 'P 1'
_space_group_name_Hall 'P 1'
loop_
    _symmetry_equiv_pos_as_xyz
    x,y,z
loop_
    _atom_site_label
    _atom_site_type_symbol
    _atom_site_fract_x
    _atom_site_fract_y
    _atom_site_fract_z
    _atom_site_occupancy
    C0      C    0.30972   0.23599   0.85444   1.000
    C1      C    0.19348   0.73573   0.64550   1.000
    C2      C    0.68994   0.76411   0.14595   1.000
    C3      C    0.80631   0.26320   0.35441   1.000
    C4      C    0.15746   0.42913   0.70685   1.000
    C5      C    0.34578   0.92940   0.79284   1.000
    C6      C    0.84254   0.56965   0.29304   1.000
    C7      C    0.65382   0.06959   0.20710   1.000
    C8      C    0.90161   0.38338   0.81298   1.000
    C9      C    0.77987   0.44981   0.74186   1.000
    C10     C    0.00954   0.30010   0.58264   1.000
    C11     C    0.82303   0.22567   0.61454   1.000
    C12     C    0.66276   0.42056   0.62094   1.000
    C13     C    0.84899   0.51297   0.61611   1.000
    C14     C    0.57084   0.12296   0.75790   1.000
    C15     C    0.26859   0.43676   0.56893   1.000
    C16     C    0.15069   0.03714   0.69308   1.000
    C17     C    0.60226   0.88385   0.68699   1.000
    C18     C    0.72377   0.94970   0.75828   1.000
    C19     C    0.49306   0.79862   0.91709   1.000
    C20     C    0.68102   0.72613   0.88530   1.000
    C21     C    0.83830   0.92217   0.87992   1.000
    C22     C    0.65258   0.01456   0.88355   1.000
    C23     C    0.93256   0.62272   0.74192   1.000
    C24     C    0.23524   0.93763   0.93092   1.000
    C25     C    0.35327   0.53682   0.80665   1.000
    C26     C    0.09934   0.61656   0.18724   1.000
    C27     C    0.22183   0.55075   0.25831   1.000
    C28     C    0.99007   0.69862   0.41764   1.000
    C29     C    0.17687   0.77293   0.38592   1.000
    C30     C    0.33644   0.57764   0.37908   1.000
    C31     C    0.14988   0.48564   0.38389   1.000
    C32     C    0.42862   0.87830   0.24224   1.000
    C33     C    0.73131   0.56111   0.43101   1.000
    C34     C    0.84976   0.96235   0.30701   1.000
    C35     C    0.39673   0.11545   0.31296   1.000
    C36     C    0.27439   0.05003   0.24178   1.000
    C37     C    0.50632   0.19916   0.08271   1.000
    C38     C    0.31895   0.27259   0.11439   1.000
    C39     C    0.16039   0.07688   0.12047   1.000
    C40     C    0.34927   0.98687   0.11644   1.000
    C41     C    0.06779   0.37761   0.25800   1.000
    C42     C    0.76835   0.06290   0.06887   1.000
    C43     C    0.64695   0.46155   0.19314   1.000
    C44     C    0.69130   0.27643   0.77920   1.000
    C45     C    0.83848   0.36153   0.76003   1.000
    C46     C    0.96923   0.31615   0.70139   1.000
    C47     C    0.89999   0.31090   0.62051   1.000
    C48     C    0.79306   0.42454   0.59698   1.000
    C49     C    0.77001   0.43536   0.51381   1.000
    C50     C    0.04253   0.19096   0.72554   1.000
    C51     C    0.81237   0.77663   0.72079   1.000
    C52     C    0.66508   0.86160   0.73998   1.000
    C53     C    0.53388   0.81613   0.79847   1.000
    C54     C    0.60265   0.81072   0.87939   1.000
    C55     C    0.70732   0.92520   0.90321   1.000
    C56     C    0.72774   0.93644   0.98644   1.000
    C57     C    0.46075   0.69105   0.77428   1.000
    C58     C    0.30841   0.72477   0.22103   1.000
    C59     C    0.16214   0.63869   0.24021   1.000
    C60     C    0.03066   0.68304   0.29886   1.000
    C61     C    0.09966   0.68785   0.37978   1.000
    C62     C    0.20621   0.57387   0.40313   1.000
    C63     C    0.22964   0.56261   0.48626   1.000
    C64     C    0.95713   0.80812   0.27472   1.000
    C65     C    0.18775   0.22387   0.27913   1.000
    C66     C    0.33403   0.13787   0.25997   1.000
    C67     C    0.46548   0.18260   0.20140   1.000
    C68     C    0.39669   0.18772   0.12047   1.000
    C69     C    0.29108   0.07352   0.09692   1.000
    C70     C    0.26978   0.06222   0.01372   1.000
    C71     C    0.53905   0.30750   0.22553   1.000
    C72     C    0.59210   0.30383   0.83119   1.000
    C73     C    0.67404   0.17573   0.73755   1.000
    C74     C    0.77826   0.34165   0.47175   1.000
    C75     C    0.74125   0.54922   0.49075   1.000
    C76     C    0.06516   0.16632   0.79283   1.000
    C77     C    0.08809   0.11385   0.67181   1.000
    C78     C    0.23810   0.41223   0.78500   1.000
    C79     C    0.07448   0.56127   0.70016   1.000
    C80     C    0.28058   0.40037   0.64354   1.000
    C81     C    0.91162   0.80451   0.66888   1.000
    C82     C    0.82974   0.67562   0.76232   1.000
    C83     C    0.71846   0.84285   0.02863   1.000
    C84     C    0.76131   0.05137   0.00912   1.000
    C85     C    0.43828   0.66679   0.70698   1.000
    C86     C    0.41521   0.61358   0.82797   1.000
    C87     C    0.26507   0.91246   0.71475   1.000
    C88     C    0.42907   0.06252   0.79957   1.000
    C89     C    0.22289   0.90118   0.85634   1.000
    C90     C    0.40753   0.69796   0.16890   1.000
    C91     C    0.32537   0.82557   0.26264   1.000
    C92     C    0.22161   0.65617   0.52843   1.000
    C93     C    0.25853   0.44868   0.50917   1.000
    C94     C    0.93467   0.83244   0.20740   1.000
    C95     C    0.91142   0.88542   0.32834   1.000
    C96     C    0.76192   0.58672   0.21491   1.000
    C97     C    0.92568   0.43756   0.29964   1.000
    C98     C    0.71928   0.59767   0.35641   1.000
    C99     C    0.08859   0.19685   0.33124   1.000
    C100    C    0.17090   0.32482   0.23752   1.000
    C101    C    0.28176   0.15538   0.97135   1.000
    C102    C    0.24472   0.94956   0.99066   1.000
    C103    C    0.56162   0.33157   0.29285   1.000
    C104    C    0.58497   0.38483   0.17185   1.000
    C105    C    0.73428   0.08621   0.28529   1.000
    C106    C    0.57105   0.93853   0.20068   1.000
    C107    C    0.77685   0.09860   0.14381   1.000
    O108    O    0.76483   0.05714   0.03900   1.000
    O109    O    0.74453   0.99391   0.99778   1.000
    O110    O    0.28043   0.06787   0.05532   1.000
    O111    O    0.27577   0.10880   0.99253   1.000
    O112    O    0.25725   0.00589   0.00219   1.000
    O113    O    0.70420   0.80348   0.08729   1.000
    O114    O    0.72310   0.88964   0.00753   1.000
    O115    O    0.45151   0.19344   0.10159   1.000
    O116    O    0.32018   0.03020   0.10668   1.000
    O117    O    0.34389   0.13062   0.10869   1.000
    O118    O    0.22574   0.07520   0.10869   1.000
    O119    O    0.35782   0.23015   0.11743   1.000
    O120    O    0.43108   0.18516   0.16093   1.000
    O121    O    0.71533   0.08410   0.17545   1.000
    O122    O    0.63049   0.85132   0.17332   1.000
    O123    O    0.35797   0.71136   0.19496   1.000
    O124    O    0.61596   0.42319   0.18250   1.000
    O125    O    0.56201   0.34616   0.19869   1.000
    O126    O    0.13074   0.62763   0.21373   1.000
    O127    O    0.61243   0.00406   0.20389   1.000
    O128    O    0.55965   0.12610   0.20425   1.000
    O129    O    0.50227   0.24505   0.21347   1.000
    O130    O    0.39976   0.16024   0.23068   1.000
    O131    O    0.69405   0.07790   0.24619   1.000
    O132    O    0.94590   0.82028   0.24106   1.000
    O133    O    0.80223   0.57819   0.25398   1.000
    O134    O    0.23527   0.68173   0.23062   1.000
    O135    O    0.31689   0.77517   0.24183   1.000
    O136    O    0.55033   0.31954   0.25919   1.000
    O137    O    0.11934   0.35122   0.24776   1.000
    O138    O    0.17932   0.27435   0.25833   1.000
    O139    O    0.19198   0.59472   0.24927   1.000
    O140    O    0.09640   0.66086   0.26954   1.000
    O141    O    0.30421   0.09395   0.25088   1.000
    O142    O    0.37699   0.85194   0.25244   1.000
    O143    O    0.26089   0.18087   0.26955   1.000
    O144    O    0.36538   0.12666   0.28646   1.000
    O145    O    0.99390   0.74558   0.28679   1.000
    O146    O    0.93428   0.84677   0.30153   1.000
    O147    O    0.13817   0.21036   0.30518   1.000
    O148    O    0.93660   0.62635   0.29595   1.000
    O149    O    0.88411   0.50361   0.29634   1.000
    O150    O    0.78091   0.58366   0.32472   1.000
    O151    O    0.06516   0.68544   0.33932   1.000
    O152    O    0.86599   0.35038   0.32703   1.000
    O153    O    0.88059   0.92388   0.31767   1.000
    O154    O    0.79228   0.30242   0.41308   1.000
    O155    O    0.27133   0.57575   0.39111   1.000
    O156    O    0.13827   0.73039   0.38285   1.000
    O157    O    0.15294   0.63086   0.39146   1.000
    O158    O    0.04486   0.69323   0.39871   1.000
    O159    O    0.17805   0.52975   0.39351   1.000
    O160    O    0.21793   0.56824   0.44469   1.000
    O161    O    0.73628   0.55516   0.46088   1.000
    O162    O    0.77413   0.38850   0.49278   1.000
    O163    O    0.24408   0.50564   0.49771   1.000
    O164    O    0.22562   0.60939   0.50735   1.000
    O165    O    0.75563   0.49229   0.50228   1.000
    O166    O    0.26356   0.44272   0.53905   1.000
    O167    O    0.78154   0.42995   0.55540   1.000
    O168    O    0.20754   0.69595   0.58697   1.000
    O169    O    0.95476   0.30550   0.60157   1.000
    O170    O    0.82103   0.46875   0.60654   1.000
    O171    O    0.84652   0.36772   0.60874   1.000
    O172    O    0.72791   0.42255   0.60896   1.000
    O173    O    0.86151   0.26828   0.61752   1.000
    O174    O    0.93461   0.31352   0.66095   1.000
    O175    O    0.21902   0.41475   0.67519   1.000
    O176    O    0.13398   0.64850   0.67283   1.000
    O177    O    0.86200   0.79057   0.69484   1.000
    O178    O    0.11939   0.07549   0.68245   1.000
    O179    O    0.06531   0.15240   0.69868   1.000
    O180    O    0.63367   0.87272   0.71348   1.000
    O181    O    0.11597   0.49520   0.70350   1.000
    O182    O    0.06334   0.37264   0.70412   1.000
    O183    O    0.00588   0.25355   0.71347   1.000
    O184    O    0.90385   0.33884   0.73071   1.000
    O185    O    0.19778   0.42068   0.74592   1.000
    O186    O    0.44951   0.67892   0.74063   1.000
    O187    O    0.30542   0.92093   0.75380   1.000
    O188    O    0.73873   0.81912   0.73039   1.000
    O189    O    0.82105   0.72613   0.74156   1.000
    O190    O    0.05384   0.17864   0.75919   1.000
    O191    O    0.62244   0.14934   0.74772   1.000
    O192    O    0.68267   0.22608   0.75837   1.000
    O193    O    0.69443   0.90565   0.74913   1.000
    O194    O    0.59948   0.83886   0.76922   1.000
    O195    O    0.80917   0.40567   0.75094   1.000
    O196    O    0.88115   0.64917   0.75212   1.000
    O197    O    0.76489   0.31898   0.76961   1.000
    O198    O    0.87004   0.37245   0.78650   1.000
    O199    O    0.49731   0.75359   0.78638   1.000
    O200    O    0.43798   0.65231   0.80112   1.000
    O201    O    0.64170   0.29013   0.80520   1.000
    O202    O    0.43983   0.87276   0.79566   1.000
    O203    O    0.38742   0.99596   0.79620   1.000
    O204    O    0.28433   0.91529   0.82459   1.000
    O205    O    0.56827   0.81342   0.83893   1.000
    O206    O    0.36939   0.14926   0.82701   1.000
    O207    O    0.38424   0.57520   0.81731   1.000
    O208    O    0.29574   0.19569   0.91290   1.000
    O209    O    0.64183   0.76843   0.88234   1.000
    O210    O    0.65499   0.86796   0.89130   1.000
    O211    O    0.54785   0.80467   0.89824   1.000
    O212    O    0.77281   0.92368   0.89157   1.000
    O213    O    0.67995   0.96988   0.89338   1.000
    O214    O    0.71753   0.93082   0.94482   1.000
    O215    O    0.23998   0.94360   0.96079   1.000
    O216    O    0.45091   0.26991   0.84282   1.000
    O217    O    0.18744   0.20116   0.82364   1.000
    O218    O    0.27391   0.32411   0.81972   1.000
    O219    O    0.05255   0.77012   0.65719   1.000
    O220    O    0.31588   0.70126   0.67624   1.000
    O221    O    0.22928   0.82409   0.68013   1.000
    O222    O    0.54873   0.73104   0.15742   1.000
    O223    O    0.81230   0.79828   0.17668   1.000
    O224    O    0.72593   0.67542   0.18043   1.000
    O225    O    0.94745   0.23003   0.34282   1.000
    O226    O    0.68396   0.29739   0.32363   1.000
    O227    O    0.77029   0.17470   0.31985   1.000
loop_
    _geom_bond_atom_site_label_1
    _geom_bond_atom_site_label_2
    _geom_bond_distance
    _geom_bond_site_symmetry_2
    _ccdc_geom_bond_type
    C84    O108      0.54087      .   S
    C42    O108      0.54087      .   S
    C84    O109      0.66025  1_544   S
    C56    O109      0.66025      .   S
    C70    O110      0.75434      .   S
    C69    O110      0.75434      .   S
    C70    O111      0.62761  1_554   S
    C101   O111      0.62761      .   S
    C70    O112      0.64409      .   S
    C102   O112      0.64409  1_566   S
    C83    O113      1.13869      .   S
    C2     O113      1.13869      .   S
    C83    O114      0.62776      .   S
    C56    O114      0.62776  1_556   S
    C37    O115      0.54861      .   S
    C68    O115      0.54861      .   S
    C69    O116      0.54469      .   S
    C40    O116      0.54469  1_565   S
    C69    O117      0.76684      .   S
    C68    O117      0.76684      .   S
    C69    O118      0.55231      .   S
    C39    O118      0.55231      .   S
    C38    O119      0.54843      .   S
    C68    O119      0.54843      .   S
    C68    O120      0.77615      .   S
    C67    O120      0.77615      .   S
    C107   O121      0.75866      .   S
    C7     O121      0.75866      .   S
    C2     O122      1.15066      .   S
    C106   O122      1.15066      .   S
    C90    O123      0.62307      .   S
    C58    O123      0.62307      .   S
    C104   O124      0.51346      .   S
    C43    O124      0.51346      .   S
    C104   O125      0.65869      .   S
    C71    O125      0.65869      .   S
    C26    O126      0.54909      .   S
    C59    O126      0.54909      .   S
    C106   O127      0.77338  1_565   S
    C7     O127      0.77338      .   S
    C67    O128      0.95330      .   S
    C7     O128      0.95330      .   S
    C67    O129      0.75853      .   S
    C71    O129      0.75853      .   S
    C67    O130      0.77135      .   S
    C66    O130      0.77135      .   S
    C7     O131      0.77555      .   S
    C105   O131      0.77555      .   S
    C94    O132      0.62460      .   S
    C64    O132      0.62460      .   S
    C96    O133      0.77534      .   S
    C6     O133      0.77534      .   S
    C58    O134      0.75285      .   S
    C59    O134      0.75285      .   S
    C58    O135      0.65904      .   S
    C91    O135      0.65904      .   S
    C71    O136      0.62456      .   S
    C103   O136      0.62456      .   S
    C100   O137      0.52452      .   S
    C41    O137      0.52452      .   S
    C100   O138      0.65901      .   S
    C65    O138      0.65901      .   S
    C59    O139      0.54913      .   S
    C27    O139      0.54913      .   S
    C59    O140      0.77157      .   S
    C60    O140      0.77157      .   S
    C36    O141      0.54914      .   S
    C66    O141      0.54914      .   S
    C32    O142      0.52437      .   S
    C91    O142      0.52437      .   S
    C66    O143      0.75274      .   S
    C65    O143      0.75274      .   S
    C66    O144      0.54908      .   S
    C35    O144      0.54908      .   S
    C64    O145      0.75889      .   S
    C60    O145      0.75889  1_455   S
    C64    O146      0.65860      .   S
    C95    O146      0.65860      .   S
    C65    O147      0.62307      .   S
    C99    O147      0.62307      .   S
    C6     O148      0.95410      .   S
    C60    O148      0.95410  1_455   S
    C6     O149      0.77895      .   S
    C97    O149      0.77895      .   S
    C6     O150      0.75895      .   S
    C98    O150      0.75895      .   S
    C60    O151      0.77641      .   S
    C61    O151      0.77641      .   S
    C97    O152      1.15047      .   S
    C3     O152      1.15047      .   S
    C34    O153      0.51356      .   S
    C95    O153      0.51356      .   S
    C3     O154      1.13896      .   S
    C74    O154      1.13896      .   S
    C30    O155      0.55236      .   S
    C62    O155      0.55236      .   S
    C61    O156      0.54843      .   S
    C29    O156      0.54843      .   S
    C61    O157      0.76698      .   S
    C62    O157      0.76698      .   S
    C61    O158      0.54869      .   S
    C28    O158      0.54869  1_655   S
    C31    O159      0.54843      .   S
    C62    O159      0.54843      .   S
    C62    O160      0.75459      .   S
    C63    O160      0.75459      .   S
    C33    O161      0.54153      .   S
    C75    O161      0.54153      .   S
    C74    O162      0.62802      .   S
    C49    O162      0.62802      .   S
    C63    O163      0.65204      .   S
    C93    O163      0.65204      .   S
    C63    O164      0.62796      .   S
    C92    O164      0.62796      .   S
    C75    O165      0.65203      .   S
    C49    O165      0.65203      .   S
    C93    O166      0.54183      .   S
    C15    O166      0.54183      .   S
    C49    O167      0.75456      .   S
    C48    O167      0.75456      .   S
    C92    O168      1.13889      .   S
    C1     O168      1.13889      .   S
    C10    O169      0.54867  1_455   S
    C47    O169      0.54867      .   S
    C48    O170      0.54844      .   S
    C13    O170      0.54844      .   S
    C48    O171      0.76677      .   S
    C47    O171      0.76677      .   S
    C48    O172      0.55237      .   S
    C12    O172      0.55237      .   S
    C11    O173      0.54834      .   S
    C47    O173      0.54834      .   S
    C47    O174      0.77649      .   S
    C46    O174      0.77649      .   S
    C80    O175      0.75896      .   S
    C4     O175      0.75896      .   S
    C1     O176      1.14994      .   S
    C79    O176      1.14994      .   S
    C81    O177      0.62303      .   S
    C51    O177      0.62303      .   S
    C77    O178      0.51415      .   S
    C16    O178      0.51415      .   S
    C77    O179      0.65855      .   S
    C50    O179      0.65855      .   S
    C17    O180      0.54911      .   S
    C52    O180      0.54911      .   S
    C79    O181      0.77898      .   S
    C4     O181      0.77898      .   S
    C46    O182      0.95289  1_655   S
    C4     O182      0.95289      .   S
    C46    O183      0.75913  1_655   S
    C50    O183      0.75913      .   S
    C46    O184      0.77138      .   S
    C45    O184      0.77138      .   S
    C4     O185      0.77551      .   S
    C78    O185      0.77551      .   S
    C85    O186      0.62463      .   S
    C57    O186      0.62463      .   S
    C87    O187      0.77531      .   S
    C5     O187      0.77531      .   S
    C51    O188      0.75245      .   S
    C52    O188      0.75245      .   S
    C51    O189      0.65908      .   S
    C82    O189      0.65908      .   S
    C50    O190      0.62472      .   S
    C76    O190      0.62472      .   S
    C73    O191      0.52420      .   S
    C14    O191      0.52420      .   S
    C73    O192      0.65896      .   S
    C44    O192      0.65896      .   S
    C52    O193      0.54906      .   S
    C18    O193      0.54906      .   S
    C52    O194      0.77148      .   S
    C53    O194      0.77148      .   S
    C9     O195      0.54908      .   S
    C45    O195      0.54908      .   S
    C23    O196      0.52377      .   S
    C82    O196      0.52377      .   S
    C45    O197      0.75232      .   S
    C44    O197      0.75232      .   S
    C45    O198      0.54909      .   S
    C8     O198      0.54909      .   S
    C57    O199      0.75890      .   S
    C53    O199      0.75890      .   S
    C57    O200      0.65882      .   S
    C86    O200      0.65882      .   S
    C44    O201      0.62308      .   S
    C72    O201      0.62308      .   S
    C5     O202      0.95345      .   S
    C53    O202      0.95345      .   S
    C5     O203      0.78443      .   S
    C88    O203      0.78443  1_545   S
    C5     O204      0.75889      .   S
    C89    O204      0.75889      .   S
    C53    O205      0.77606      .   S
    C54    O205      0.77606      .   S
    C88    O206      1.14782      .   S
    C0     O206      1.14782      .   S
    C25    O207      0.51369      .   S
    C86    O207      0.51369      .   S
    C0     O208      1.13878      .   S
    C101   O208      1.13878      .   S
    C54    O209      0.54840      .   S
    C20    O209      0.54840      .   S
    C54    O210      0.76671      .   S
    C55    O210      0.76671      .   S
    C54    O211      0.54858      .   S
    C19    O211      0.54858      .   S
    C21    O212      0.55234      .   S
    C55    O212      0.55234      .   S
    C22    O213      0.55210  1_545   S
    C55    O213      0.55210      .   S
    C55    O214      0.75423      .   S
    C56    O214      0.75423      .   S
    C24    O215      0.54155      .   S
    C102   O215      0.54155      .   S
    C72    O216      1.17924      .   S
    C0     O216      1.17924      .   S
    C76    O217      1.16735      .   S
    C0     O217      1.16735      .   S
    C78    O218      1.16319      .   S
    C0     O218      1.16319      .   S
    C81    O219      1.17920  1_655   S
    C1     O219      1.17920      .   S
    C85    O220      1.16588      .   S
    C1     O220      1.16588      .   S
    C87    O221      1.16549      .   S
    C1     O221      1.16549      .   S
    C90    O222      1.17617      .   S
    C2     O222      1.17617      .   S
    C94    O223      1.16494      .   S
    C2     O223      1.16494      .   S
    C96    O224      1.16624      .   S
    C2     O224      1.16624      .   S
    C99    O225      1.17644  1_455   S
    C3     O225      1.17644      .   S
    C103   O226      1.16494      .   S
    C3     O226      1.16494      .   S
    C105   O227      1.16641      .   S
    C3     O227      1.16641      .   S
