# CIF file generated by openbabel 2.4.90, see http://openbabel.sf.net
data_I
_chemical_name_common ''
_cell_length_a 7.816
_cell_length_b 10.681
_cell_length_c 17.955
_cell_angle_alpha 89.939
_cell_angle_beta 89.762
_cell_angle_gamma 89.996
_space_group_name_H-M_alt 'P 1'
_space_group_name_Hall 'P 1'
loop_
    _symmetry_equiv_pos_as_xyz
    x,y,z
loop_
    _atom_site_label
    _atom_site_type_symbol
    _atom_site_fract_x
    _atom_site_fract_y
    _atom_site_fract_z
    _atom_site_occupancy
    Zr0     Zr   0.30972   0.23599   0.85444   1.000
    Zr1     Zr   0.19348   0.73573   0.64550   1.000
    Zr2     Zr   0.68994   0.76411   0.14595   1.000
    Zr3     Zr   0.80631   0.26320   0.35441   1.000
    Zr4     Zr   0.57084   0.12296   0.75790   1.000
    Zr5     Zr   0.26859   0.43676   0.56893   1.000
    Zr6     Zr   0.15069   0.03714   0.69308   1.000
    Zr7     Zr   0.93256   0.62272   0.74192   1.000
    Zr8     Zr   0.23524   0.93763   0.93092   1.000
    Zr9     Zr   0.35327   0.53682   0.80665   1.000
    Zr10    Zr   0.42862   0.87830   0.24224   1.000
    Zr11    Zr   0.73131   0.56111   0.43101   1.000
    Zr12    Zr   0.84976   0.96235   0.30701   1.000
    Zr13    Zr   0.06779   0.37761   0.25800   1.000
    Zr14    Zr   0.76835   0.06290   0.06887   1.000
    Zr15    Zr   0.64695   0.46155   0.19314   1.000
    Zr16    Zr   0.69130   0.27643   0.77920   1.000
    Zr17    Zr   0.77001   0.43536   0.51381   1.000
    Zr18    Zr   0.04253   0.19096   0.72554   1.000
    Zr19    Zr   0.81237   0.77663   0.72079   1.000
    Zr20    Zr   0.72774   0.93644   0.98644   1.000
    Zr21    Zr   0.46075   0.69105   0.77428   1.000
    Zr22    Zr   0.30841   0.72477   0.22103   1.000
    Zr23    Zr   0.22964   0.56261   0.48626   1.000
    Zr24    Zr   0.95713   0.80812   0.27472   1.000
    Zr25    Zr   0.18775   0.22387   0.27913   1.000
    Zr26    Zr   0.26978   0.06222   0.01372   1.000
    Zr27    Zr   0.53905   0.30750   0.22553   1.000
    Zr28    Zr   0.59210   0.30383   0.83119   1.000
    Zr29    Zr   0.67404   0.17573   0.73755   1.000
    Zr30    Zr   0.77826   0.34165   0.47175   1.000
    Zr31    Zr   0.74125   0.54922   0.49075   1.000
    Zr32    Zr   0.06516   0.16632   0.79283   1.000
    Zr33    Zr   0.08809   0.11385   0.67181   1.000
    Zr34    Zr   0.91162   0.80451   0.66888   1.000
    Zr35    Zr   0.82974   0.67562   0.76232   1.000
    Zr36    Zr   0.71846   0.84285   0.02863   1.000
    Zr37    Zr   0.76131   0.05137   0.00912   1.000
    Zr38    Zr   0.43828   0.66679   0.70698   1.000
    Zr39    Zr   0.41521   0.61358   0.82797   1.000
    Zr40    Zr   0.40753   0.69796   0.16890   1.000
    Zr41    Zr   0.32537   0.82557   0.26264   1.000
    Zr42    Zr   0.22161   0.65617   0.52843   1.000
    Zr43    Zr   0.25853   0.44868   0.50917   1.000
    Zr44    Zr   0.93467   0.83244   0.20740   1.000
    Zr45    Zr   0.91142   0.88542   0.32834   1.000
    Zr46    Zr   0.08859   0.19685   0.33124   1.000
    Zr47    Zr   0.17090   0.32482   0.23752   1.000
    Zr48    Zr   0.28176   0.15538   0.97135   1.000
    Zr49    Zr   0.24472   0.94956   0.99066   1.000
    Zr50    Zr   0.56162   0.33157   0.29285   1.000
    Zr51    Zr   0.58497   0.38483   0.17185   1.000
    O52     O    0.76483   0.05714   0.03900   1.000
    O53     O    0.74453   0.99391   0.99778   1.000
    O54     O    0.27577   0.10880   0.99253   1.000
    O55     O    0.25725   0.00589   0.00219   1.000
    O56     O    0.70420   0.80348   0.08729   1.000
    O57     O    0.72310   0.88964   0.00753   1.000
    O58     O    0.35797   0.71136   0.19496   1.000
    O59     O    0.61596   0.42319   0.18250   1.000
    O60     O    0.56201   0.34616   0.19869   1.000
    O61     O    0.94590   0.82028   0.24106   1.000
    O62     O    0.31689   0.77517   0.24183   1.000
    O63     O    0.55033   0.31954   0.25919   1.000
    O64     O    0.11934   0.35122   0.24776   1.000
    O65     O    0.17932   0.27435   0.25833   1.000
    O66     O    0.37699   0.85194   0.25244   1.000
    O67     O    0.93428   0.84677   0.30153   1.000
    O68     O    0.13817   0.21036   0.30518   1.000
    O69     O    0.88059   0.92388   0.31767   1.000
    O70     O    0.79228   0.30242   0.41308   1.000
    O71     O    0.73628   0.55516   0.46088   1.000
    O72     O    0.77413   0.38850   0.49278   1.000
    O73     O    0.24408   0.50564   0.49771   1.000
    O74     O    0.22562   0.60939   0.50735   1.000
    O75     O    0.75563   0.49229   0.50228   1.000
    O76     O    0.26356   0.44272   0.53905   1.000
    O77     O    0.20754   0.69595   0.58697   1.000
    O78     O    0.86200   0.79057   0.69484   1.000
    O79     O    0.11939   0.07549   0.68245   1.000
    O80     O    0.06531   0.15240   0.69868   1.000
    O81     O    0.44951   0.67892   0.74063   1.000
    O82     O    0.82105   0.72613   0.74156   1.000
    O83     O    0.05384   0.17864   0.75919   1.000
    O84     O    0.62244   0.14934   0.74772   1.000
    O85     O    0.68267   0.22608   0.75837   1.000
    O86     O    0.88115   0.64917   0.75212   1.000
    O87     O    0.43798   0.65231   0.80112   1.000
    O88     O    0.64170   0.29013   0.80520   1.000
    O89     O    0.38424   0.57520   0.81731   1.000
    O90     O    0.29574   0.19569   0.91290   1.000
    O91     O    0.23998   0.94360   0.96079   1.000
    O92     O    0.45091   0.26991   0.84282   1.000
    O93     O    0.18744   0.20116   0.82364   1.000
    O94     O    0.05255   0.77012   0.65719   1.000
    O95     O    0.31588   0.70126   0.67624   1.000
    O96     O    0.54873   0.73104   0.15742   1.000
    O97     O    0.81230   0.79828   0.17668   1.000
    O98     O    0.94745   0.23003   0.34282   1.000
    O99     O    0.68396   0.29739   0.32363   1.000
    N100    N    0.05161   0.60551   0.32129   1.000
    O101    O    0.02275   0.67555   0.30404   1.000
    O102    O    0.13477   0.58687   0.38299   1.000
    O103    O    0.14344   0.64362   0.27596   1.000
    O104    O    0.95880   0.47795   0.32416   1.000
    O105    O    0.88877   0.64047   0.25086   1.000
    N106    N    0.44495   0.10540   0.17889   1.000
    O107    O    0.36269   0.08664   0.11710   1.000
    O108    O    0.47361   0.17523   0.19618   1.000
    O109    O    0.35292   0.14314   0.22422   1.000
    O110    O    0.53772   0.97836   0.17610   1.000
    O111    O    0.60762   0.14005   0.24937   1.000
    N112    N    0.94837   0.39347   0.67882   1.000
    O113    O    0.85663   0.35622   0.72422   1.000
    O114    O    0.11114   0.35879   0.74927   1.000
    O115    O    0.04118   0.52098   0.67582   1.000
    O116    O    0.97712   0.32351   0.69614   1.000
    O117    O    0.86495   0.41171   0.61711   1.000
    N118    N    0.55448   0.89387   0.82112   1.000
    O119    O    0.46194   0.02157   0.82406   1.000
    O120    O    0.39188   0.85898   0.75062   1.000
    O121    O    0.52590   0.82373   0.80375   1.000
    O122    O    0.63601   0.91235   0.88297   1.000
    O123    O    0.64660   0.85650   0.77575   1.000
loop_
    _geom_bond_atom_site_label_1
    _geom_bond_atom_site_label_2
    _geom_bond_distance
    _geom_bond_site_symmetry_2
    _ccdc_geom_bond_type
    Zr37   O52       0.54087      .   S
    Zr14   O52       0.54087      .   S
    Zr37   O53       0.66025  1_544   S
    Zr20   O53       0.66025      .   S
    Zr26   O54       0.62761  1_554   S
    Zr48   O54       0.62761      .   S
    Zr26   O55       0.64409      .   S
    Zr49   O55       0.64409  1_566   S
    Zr36   O56       1.13869      .   S
    Zr2    O56       1.13869      .   S
    Zr36   O57       0.62776      .   S
    Zr20   O57       0.62776  1_556   S
    Zr40   O58       0.62307      .   S
    Zr22   O58       0.62307      .   S
    Zr51   O59       0.51346      .   S
    Zr15   O59       0.51346      .   S
    Zr51   O60       0.65869      .   S
    Zr27   O60       0.65869      .   S
    Zr44   O61       0.62460      .   S
    Zr24   O61       0.62460      .   S
    Zr22   O62       0.65904      .   S
    Zr41   O62       0.65904      .   S
    Zr27   O63       0.62456      .   S
    Zr50   O63       0.62456      .   S
    Zr47   O64       0.52452      .   S
    Zr13   O64       0.52452      .   S
    Zr47   O65       0.65901      .   S
    Zr25   O65       0.65901      .   S
    Zr10   O66       0.52437      .   S
    Zr41   O66       0.52437      .   S
    Zr24   O67       0.65860      .   S
    Zr45   O67       0.65860      .   S
    Zr25   O68       0.62307      .   S
    Zr46   O68       0.62307      .   S
    Zr12   O69       0.51356      .   S
    Zr45   O69       0.51356      .   S
    Zr3    O70       1.13896      .   S
    Zr30   O70       1.13896      .   S
    Zr11   O71       0.54153      .   S
    Zr31   O71       0.54153      .   S
    Zr30   O72       0.62802      .   S
    Zr17   O72       0.62802      .   S
    Zr23   O73       0.65204      .   S
    Zr43   O73       0.65204      .   S
    Zr23   O74       0.62796      .   S
    Zr42   O74       0.62796      .   S
    Zr31   O75       0.65203      .   S
    Zr17   O75       0.65203      .   S
    Zr43   O76       0.54183      .   S
    Zr5    O76       0.54183      .   S
    Zr42   O77       1.13889      .   S
    Zr1    O77       1.13889      .   S
    Zr34   O78       0.62303      .   S
    Zr19   O78       0.62303      .   S
    Zr33   O79       0.51415      .   S
    Zr6    O79       0.51415      .   S
    Zr33   O80       0.65855      .   S
    Zr18   O80       0.65855      .   S
    Zr38   O81       0.62463      .   S
    Zr21   O81       0.62463      .   S
    Zr19   O82       0.65908      .   S
    Zr35   O82       0.65908      .   S
    Zr18   O83       0.62472      .   S
    Zr32   O83       0.62472      .   S
    Zr29   O84       0.52420      .   S
    Zr4    O84       0.52420      .   S
    Zr29   O85       0.65896      .   S
    Zr16   O85       0.65896      .   S
    Zr7    O86       0.52377      .   S
    Zr35   O86       0.52377      .   S
    Zr21   O87       0.65882      .   S
    Zr39   O87       0.65882      .   S
    Zr16   O88       0.62308      .   S
    Zr28   O88       0.62308      .   S
    Zr9    O89       0.51369      .   S
    Zr39   O89       0.51369      .   S
    Zr0    O90       1.13878      .   S
    Zr48   O90       1.13878      .   S
    Zr8    O91       0.54155      .   S
    Zr49   O91       0.54155      .   S
    Zr28   O92       1.17924      .   S
    Zr0    O92       1.17924      .   S
    Zr32   O93       1.16735      .   S
    Zr0    O93       1.16735      .   S
    Zr34   O94       1.17920  1_655   S
    Zr1    O94       1.17920      .   S
    Zr38   O95       1.16588      .   S
    Zr1    O95       1.16588      .   S
    Zr40   O96       1.17617      .   S
    Zr2    O96       1.17617      .   S
    Zr44   O97       1.16494      .   S
    Zr2    O97       1.16494      .   S
    Zr46   O98       1.17644  1_455   S
    Zr3    O98       1.17644      .   S
    Zr50   O99       1.16494      .   S
    Zr3    O99       1.16494      .   S
    N100   O101      0.84046      .   S
    Zr24   O101      1.59554  1_655   S
    N100   O102      1.30187      .   S
    Zr23   O102      2.01621      .   S
    N100   O103      1.15667      .   S
    Zr22   O103      1.83687      .   S
    N100   O104      1.54435  1_455   S
    Zr3    O104      2.63987      .   S
    N100   O105      1.83594  1_455   S
    Zr2    O105      2.77963      .   S
    N106   O107      1.30023      .   S
    Zr26   O107      2.01325      .   S
    N106   O108      0.83896      .   S
    Zr27   O108      1.59357      .   S
    N106   O109      1.15678      .   S
    Zr25   O109      1.83665      .   S
    N106   O110      1.53922  1_545   S
    Zr2    O110      2.63481      .   S
    N106   O111      1.83560      .   S
    Zr3    O111      2.78005      .   S
    N112   O113      1.15382      .   S
    Zr16   O113      1.83260      .   S
    N112   O114      1.83523  1_655   S
    Zr0    O114      2.77741      .   S
    N112   O115      1.54392  1_655   S
    Zr1    O115      2.63950      .   S
    N112   O116      0.84003      .   S
    Zr18   O116      1.59532  1_455   S
    N112   O117      1.30243      .   S
    Zr17   O117      2.01611      .   S
    N118   O119      1.54463  1_565   S
    Zr0    O119      2.63731      .   S
    N118   O120      1.83594      .   S
    Zr1    O120      2.78033      .   S
    N118   O121      0.84237      .   S
    Zr21   O121      1.59738      .   S
    N118   O122      1.29794      .   S
    Zr20   O122      2.01089      .   S
    N118   O123      1.15635      .   S
    Zr19   O123      1.83603      .   S
