# CIF file generated by openbabel 2.4.90, see http://openbabel.sf.net
data_I
_chemical_name_common ''
_cell_length_a 7.816
_cell_length_b 10.681
_cell_length_c 17.955
_cell_angle_alpha 89.939
_cell_angle_beta 89.762
_cell_angle_gamma 89.996
_space_group_name_H-M_alt 'P 1'
_space_group_name_Hall 'P 1'
loop_
    _symmetry_equiv_pos_as_xyz
    x,y,z
loop_
    _atom_site_label
    _atom_site_type_symbol
    _atom_site_fract_x
    _atom_site_fract_y
    _atom_site_fract_z
    _atom_site_occupancy
    N0      N    0.05161   0.60551   0.32129   1.000
    N1      N    0.44495   0.10540   0.17889   1.000
    N2      N    0.94837   0.39347   0.67882   1.000
    N3      N    0.55448   0.89387   0.82112   1.000
    Zr4     Zr   0.67605   0.86712   0.17318   1.000
    O5      O    0.90975   0.75537   0.22457   1.000
    O6      O    0.78241   0.75379   0.21202   1.000
    O7      O    0.60689   0.92274   0.17464   1.000
    O8      O    0.84940   0.77133   0.23861   1.000
    O9      O    0.65603   0.88973   0.02807   1.000
    Zr10    Zr   0.32431   0.13292   0.82694   1.000
    O11     O    0.09047   0.24457   0.77558   1.000
    O12     O    0.34350   0.10978   0.97202   1.000
    O13     O    0.21772   0.24586   0.78810   1.000
    O14     O    0.39312   0.07724   0.82550   1.000
    O15     O    0.15071   0.22822   0.76154   1.000
    Zr16    Zr   0.82113   0.36609   0.32700   1.000
    O17     O    0.88997   0.42202   0.32558   1.000
    O18     O    0.71438   0.25307   0.28818   1.000
    O19     O    0.58703   0.25461   0.27561   1.000
    O20     O    0.64737   0.27066   0.26159   1.000
    O21     O    0.84304   0.38890   0.47205   1.000
    Zr22    Zr   0.17890   0.63290   0.67293   1.000
    O23     O    0.15683   0.60989   0.52796   1.000
    O24     O    0.41275   0.74470   0.72434   1.000
    O25     O    0.35240   0.72831   0.73834   1.000
    O26     O    0.11004   0.57694   0.67438   1.000
    O27     O    0.28539   0.74594   0.71178   1.000
loop_
    _geom_bond_atom_site_label_1
    _geom_bond_atom_site_label_2
    _geom_bond_distance
    _geom_bond_site_symmetry_2
    _ccdc_geom_bond_type
    Zr4    O5        2.37144      .   S
    N0     O5        2.61101  1_455   S
    Zr4    O6        1.62651      .   S
    N0     O6        3.28816  1_455   S
    Zr4    O7        0.80358      .   S
    N1     O7        2.32666  1_545   S
    Zr4    O8        2.06719      .   S
    N0     O8        2.80216  1_455   S
    Zr4    O9        2.62154      .   S
    N3     O9        3.80312  1_556   S
    Zr10   O11       2.37156      .   S
    N2     O11       2.60590  1_655   S
    Zr10   O12       2.62130      .   S
    N1     O12       3.80143  1_554   S
    Zr10   O13       1.62421      .   S
    N2     O13       3.28563  1_655   S
    Zr10   O14       0.80218      .   S
    N3     O14       2.33066  1_565   S
    Zr10   O15       2.06546      .   S
    N2     O15       2.79930  1_655   S
    Zr16   O17       0.80428      .   S
    N0     O17       2.33294  1_455   S
    Zr16   O18       1.62662      .   S
    N1     O18       3.28859      .   S
    Zr16   O19       2.37358      .   S
    N1     O19       2.60983      .   S
    Zr16   O20       2.06854      .   S
    N1     O20       2.80163      .   S
    Zr16   O21       2.62239      .   S
    N2     O21       3.80638      .   S
    Zr22   O23       2.62114      .   S
    N0     O23       3.80445      .   S
    Zr22   O24       2.37394      .   S
    N3     O24       2.60913      .   S
    Zr22   O25       2.06709      .   S
    N3     O25       2.80294      .   S
    Zr22   O26       0.80465      .   S
    N2     O26       2.33289  1_655   S
    Zr22   O27       1.62600      .   S
    N3     O27       3.28877      .   S
