# CIF file generated by openbabel 2.4.90, see http://openbabel.sf.net
data_I
_chemical_name_common ''
_cell_length_a 13.273
_cell_length_b 14.197
_cell_length_c 17.285
_cell_angle_alpha 66.122
_cell_angle_beta 87.262
_cell_angle_gamma 89.829
_space_group_name_H-M_alt 'P 1'
_space_group_name_Hall 'P 1'
loop_
    _symmetry_equiv_pos_as_xyz
    x,y,z
loop_
    _atom_site_label
    _atom_site_type_symbol
    _atom_site_fract_x
    _atom_site_fract_y
    _atom_site_fract_z
    _atom_site_occupancy
    N0      N    0.14942   0.03457   0.77652   1.000
    N1      N    0.85152   0.96470   0.22437   1.000
    N2      N    0.33662   0.56352   0.22863   1.000
    N3      N    0.66351   0.43595   0.77160   1.000
    Zr4     Zr   0.83943   0.51621   0.22941   1.000
    O5      O    0.93928   0.39671   0.12364   1.000
    O6      O    0.91474   0.67737   0.09276   1.000
    Zr7     Zr   0.59557   0.01558   0.74333   1.000
    O8      O    0.67346   0.00875   0.87063   1.000
    O9      O    0.67136   0.99219   0.60795   1.000
    O10     O    0.52469   0.17124   0.60599   1.000
    Zr11    Zr   0.26659   0.84362   0.39145   1.000
    O12     O    0.37810   0.72889   0.49370   1.000
    Zr13    Zr   0.40457   0.98435   0.25804   1.000
    O14     O    0.32689   0.99108   0.13064   1.000
    O15     O    0.47543   0.82855   0.39504   1.000
    O16     O    0.32902   0.00764   0.39327   1.000
    Zr17    Zr   0.73360   0.15613   0.60968   1.000
    O18     O    0.62209   0.27078   0.50720   1.000
    Zr19    Zr   0.10207   0.55613   0.70608   1.000
    O20     O    0.03216   0.63910   0.84449   1.000
    Zr21    Zr   0.22178   0.41128   0.83588   1.000
    O22     O    0.11703   0.28585   0.94014   1.000
    O23     O    0.02546   0.66768   0.58068   1.000
    O24     O    0.17327   0.56018   0.58582   1.000
    O25     O    0.94521   0.36812   0.38757   1.000
    O26     O    0.77539   0.50882   0.10126   1.000
    O27     O    0.79750   0.47590   0.38202   1.000
    O28     O    0.48344   0.10726   0.13118   1.000
    O29     O    0.23178   0.89675   0.48489   1.000
    O30     O    0.76858   0.10290   0.51615   1.000
    O31     O    0.51668   0.89250   0.86985   1.000
    O32     O    0.25565   0.45505   0.93146   1.000
loop_
    _geom_bond_atom_site_label_1
    _geom_bond_atom_site_label_2
    _geom_bond_distance
    _geom_bond_site_symmetry_2
    _ccdc_geom_bond_type
    Zr4    O5        3.20043      .   S
    N0     O5        9.66963  1_456   S
    Zr4    O6        2.68816      .   S
    N0     O6        6.42839  1_446   S
    Zr7    O8        2.44210      .   S
    N1     O8        6.45287  1_564   S
    Zr7    O9        2.64588  1_545   S
    N1     O9        7.09950      .   S
    Zr7    O10       2.71256      .   S
    N2     O10       7.20105      .   S
    Zr11   O12       2.42320      .   S
    N3     O12       6.33980      .   S
    Zr13   O14       2.44292      .   S
    N0     O14       6.45796  1_546   S
    Zr13   O15       2.71008      .   S
    N3     O15       7.19465      .   S
    Zr13   O16       2.64170  1_565   S
    N0     O16       7.08856      .   S
    Zr17   O18       2.42475      .   S
    N2     O18       6.34527      .   S
    Zr19   O20       3.16778      .   S
    N1     O20       9.65586  1_654   S
    Zr21   O22       2.35148      .   S
    N1     O22       6.13608  1_664   S
    Zr19   O23       2.37959      .   S
    N1     O23       6.42778  1_655   S
    Zr19   O24       2.22113      .   S
    N2     O24       6.42694      .   S
    Zr4    O25       3.09217      .   S
    N0     O25       7.13152  1_455   S
    Zr4    O26       2.45125      .   S
    N3     O26       6.42907  1_556   S
    Zr4    O27       2.49706      .   S
    N3     O27       6.67837      .   S
    Zr13   O28       2.37548  1_565   S
    N3     O28       6.42530  1_556   S
    Zr11   O29       2.07466      .   S
    N0     O29       6.15453  1_545   S
    N1     O30       6.16145  1_565   S
    Zr17   O30       2.07746      .   S
    N2     O31       6.41766  1_554   S
    Zr7    O31       2.37293  1_545   S
    N2     O32       6.07068  1_554   S
    Zr21   O32       2.05451      .   S
