# CIF file generated by openbabel 2.4.90, see http://openbabel.sf.net
data_I
_chemical_name_common ''
_cell_length_a 13.273
_cell_length_b 14.197
_cell_length_c 17.285
_cell_angle_alpha 66.122
_cell_angle_beta 87.262
_cell_angle_gamma 89.829
_space_group_name_H-M_alt 'P 1'
_space_group_name_Hall 'P 1'
loop_
    _symmetry_equiv_pos_as_xyz
    x,y,z
loop_
    _atom_site_label
    _atom_site_type_symbol
    _atom_site_fract_x
    _atom_site_fract_y
    _atom_site_fract_z
    _atom_site_occupancy
    Zr0     Zr   0.26659   0.84362   0.39145   1.000
    Zr1     Zr   0.89783   0.44378   0.29429   1.000
    Zr2     Zr   0.78103   0.58863   0.16452   1.000
    Zr3     Zr   0.40457   0.98435   0.25804   1.000
    Zr4     Zr   0.73360   0.15613   0.60968   1.000
    Zr5     Zr   0.10207   0.55613   0.70608   1.000
    Zr6     Zr   0.22178   0.41128   0.83588   1.000
    Zr7     Zr   0.59557   0.01558   0.74333   1.000
    O8      O    0.83943   0.51621   0.22941   1.000
    N9      N    0.14942   0.03457   0.77652   1.000
    O10     O    0.24920   0.99781   0.00323   1.000
    O11     O    0.18930   0.93392   0.56293   1.000
    O12     O    0.03912   0.27721   0.01788   1.000
    O13     O    0.99005   0.83854   0.95611   1.000
    O14     O    0.20463   0.96583   0.59374   1.000
    O15     O    0.25348   0.03093   0.52851   1.000
    O16     O    0.04381   0.21954   0.56125   1.000
    O17     O    0.05817   0.22053   0.53023   1.000
    N18     N    0.85152   0.96470   0.22437   1.000
    O19     O    0.75135   0.00192   0.99793   1.000
    O20     O    0.81128   0.06559   0.43806   1.000
    O21     O    0.96225   0.72208   0.98289   1.000
    O22     O    0.01228   0.16041   0.04440   1.000
    O23     O    0.79585   0.03374   0.40717   1.000
    O24     O    0.74715   0.96879   0.47256   1.000
    O25     O    0.95613   0.77978   0.43977   1.000
    O26     O    0.94155   0.77868   0.47079   1.000
    N27     N    0.33662   0.56352   0.22863   1.000
    O28     O    0.45380   0.32690   0.46865   1.000
    O29     O    0.51058   0.38542   0.40473   1.000
    O30     O    0.24728   0.54719   0.45271   1.000
    O31     O    0.30153   0.48439   0.01103   1.000
    O32     O    0.27749   0.51325   0.04304   1.000
    O33     O    0.24164   0.58126   0.47840   1.000
    O34     O    0.44288   0.77018   0.01151   1.000
    O35     O    0.43270   0.76864   0.98122   1.000
    N36     N    0.66351   0.43595   0.77160   1.000
    O37     O    0.54628   0.67275   0.53205   1.000
    O38     O    0.48960   0.61416   0.59595   1.000
    O39     O    0.75284   0.45252   0.54758   1.000
    O40     O    0.70022   0.51627   0.98908   1.000
    O41     O    0.72247   0.48658   0.95714   1.000
    O42     O    0.75829   0.41866   0.52168   1.000
    O43     O    0.55719   0.22936   0.98919   1.000
    O44     O    0.56742   0.23097   0.01944   1.000
loop_
    _geom_bond_atom_site_label_1
    _geom_bond_atom_site_label_2
    _geom_bond_distance
    _geom_bond_site_symmetry_2
    _ccdc_geom_bond_type
    Zr2    O8        1.43546      .   S
    Zr1    O8        1.43546      .   S
    N9     O10       4.02735  1_546   S
    Zr3    O10       4.88583      .   S
    N9     O11       4.47556  1_545   S
    Zr0    O11       3.77629      .   S
    N9     O12       6.51419  1_556   S
    Zr1    O12       6.34052  1_655   S
    N9     O13       3.77751  1_445   S
    Zr2    O13       4.69238  1_554   S
    N9     O14       3.70691  1_545   S
    Zr0    O14       4.53227      .   S
    N9     O15       4.46102      .   S
    Zr3    O15       5.28340  1_565   S
    N9     O16       3.90785      .   S
    Zr1    O16       4.90989  1_655   S
    N9     O17       4.23485      .   S
    Zr1    O17       4.64020  1_655   S
    N18    O19       4.02314  1_564   S
    Zr7    O19       4.88420      .   S
    N18    O20       4.47985  1_565   S
    Zr4    O20       3.78180      .   S
    N18    O21       6.51694  1_554   S
    Zr5    O21       6.33556  1_455   S
    N18    O22       3.78864  1_665   S
    Zr6    O22       4.70296  1_556   S
    N18    O23       3.71075  1_565   S
    Zr4    O23       4.53802      .   S
    N18    O24       4.46766      .   S
    Zr7    O24       5.29177  1_545   S
    N18    O25       3.90389      .   S
    Zr5    O25       4.89960  1_455   S
    N18    O26       4.23136      .   S
    Zr5    O26       4.63119  1_455   S
    N27    O28       4.49646      .   S
    Zr7    O28       5.42513      .   S
    N27    O29       3.92362      .   S
    Zr4    O29       4.84950      .   S
    N27    O30       3.91117      .   S
    Zr5    O30       4.74902      .   S
    N27    O31       4.38381      .   S
    Zr6    O31       3.77084  1_556   S
    N27    O32       3.67612      .   S
    Zr6    O32       4.46316  1_556   S
    N27    O33       4.54416      .   S
    Zr5    O33       4.14941      .   S
    N27    O34       3.90979      .   S
    Zr7    O34       4.87887  1_546   S
    N27    O35       4.22067  1_554   S
    Zr7    O35       4.62573  1_545   S
    N36    O37       4.49262      .   S
    Zr3    O37       5.42016      .   S
    N36    O38       3.91969      .   S
    Zr0    O38       4.84640      .   S
    N36    O39       3.90903      .   S
    Zr1    O39       4.74556      .   S
    N36    O40       4.39511      .   S
    Zr2    O40       3.77380  1_554   S
    N36    O41       3.67736      .   S
    Zr2    O41       4.47554  1_554   S
    N36    O42       4.54336      .   S
    Zr1    O42       4.14477      .   S
    N36    O43       3.91481      .   S
    Zr3    O43       4.88413  1_564   S
    N36    O44       4.22545  1_556   S
    Zr3    O44       4.63068  1_565   S
