# CIF file generated by openbabel 2.4.90, see http://openbabel.sf.net
data_I
_chemical_name_common ''
_cell_length_a 13.273
_cell_length_b 14.197
_cell_length_c 17.285
_cell_angle_alpha 66.122
_cell_angle_beta 87.262
_cell_angle_gamma 89.829
_space_group_name_H-M_alt 'P 1'
_space_group_name_Hall 'P 1'
loop_
    _symmetry_equiv_pos_as_xyz
    x,y,z
loop_
    _atom_site_label
    _atom_site_type_symbol
    _atom_site_fract_x
    _atom_site_fract_y
    _atom_site_fract_z
    _atom_site_occupancy
    C0      C    0.26659   0.84362   0.39145   1.000
    C1      C    0.89783   0.44378   0.29429   1.000
    C2      C    0.78103   0.58863   0.16452   1.000
    C3      C    0.40457   0.98435   0.25804   1.000
    C4      C    0.73360   0.15613   0.60968   1.000
    C5      C    0.10207   0.55613   0.70608   1.000
    C6      C    0.22178   0.41128   0.83588   1.000
    C7      C    0.59557   0.01558   0.74333   1.000
    C8      C    0.08038   0.72211   0.25810   1.000
    C9      C    0.00000   0.81243   0.99806   1.000
    C10     C    0.23417   0.98072   0.06048   1.000
    C11     C    0.16583   0.10041   0.93623   1.000
    C12     C    0.26830   0.03911   0.90387   1.000
    C13     C    0.07641   0.11037   0.80185   1.000
    C14     C    0.15205   0.21515   0.29532   1.000
    C15     C    0.10489   0.29574   0.50874   1.000
    C16     C    0.30020   0.04495   0.52823   1.000
    C17     C    0.20417   0.28380   0.62555   1.000
    C18     C    0.10432   0.18952   0.65340   1.000
    C19     C    0.30311   0.14599   0.74860   1.000
    C20     C    0.56864   0.70051   0.29650   1.000
    C21     C    0.72841   0.47022   0.49437   1.000
    C22     C    0.49212   0.64027   0.55809   1.000
    C23     C    0.70278   0.37245   0.63179   1.000
    C24     C    0.77822   0.48093   0.62297   1.000
    C25     C    0.65050   0.33831   0.78311   1.000
    C26     C    0.82440   0.49641   0.74676   1.000
    C27     C    0.74836   0.47367   0.89058   1.000
    C28     C    0.85433   0.39545   0.89471   1.000
    C29     C    0.79921   0.41661   0.01493   1.000
    C30     C    0.66800   0.20893   0.25655   1.000
    C31     C    0.60356   0.16676   0.03040   1.000
    C32     C    0.92153   0.27718   0.74261   1.000
    C33     C    0.00046   0.18498   0.00000   1.000
    C34     C    0.76798   0.01869   0.94058   1.000
    C35     C    0.83638   0.89770   0.06480   1.000
    C36     C    0.73488   0.96094   0.09635   1.000
    C37     C    0.92554   0.88708   0.19961   1.000
    C38     C    0.84583   0.78381   0.70617   1.000
    C39     C    0.89377   0.70349   0.49268   1.000
    C40     C    0.70018   0.95579   0.47233   1.000
    C41     C    0.79573   0.71652   0.37527   1.000
    C42     C    0.89604   0.81017   0.34816   1.000
    C43     C    0.69831   0.85574   0.25156   1.000
    C44     C    0.43246   0.30092   0.70382   1.000
    C45     C    0.27220   0.52987   0.50554   1.000
    C46     C    0.50770   0.35829   0.44269   1.000
    C47     C    0.29767   0.62648   0.36814   1.000
    C48     C    0.22181   0.51808   0.37738   1.000
    C49     C    0.34936   0.66020   0.21699   1.000
    C50     C    0.17613   0.50130   0.25372   1.000
    C51     C    0.25243   0.52441   0.10961   1.000
    C52     C    0.14613   0.60216   0.10569   1.000
    C53     C    0.20001   0.58291   0.98500   1.000
    C54     C    0.33125   0.79140   0.74371   1.000
    C55     C    0.39683   0.83147   0.97054   1.000
    C56     C    0.22049   0.87388   0.22824   1.000
    C57     C    0.95458   0.67704   0.15649   1.000
    C58     C    0.16144   0.85441   0.16482   1.000
    C59     C    0.09176   0.77250   0.19139   1.000
    C60     C    0.03516   0.75778   0.13078   1.000
    C61     C    0.04920   0.82290   0.04516   1.000
    C62     C    0.12136   0.90293   0.01850   1.000
    C63     C    0.17767   0.91925   0.07849   1.000
    C64     C    0.18686   0.05464   0.89950   1.000
    C65     C    0.15771   0.10796   0.80996   1.000
    C66     C    0.26908   0.04467   0.37613   1.000
    C67     C    0.04302   0.33646   0.35340   1.000
    C68     C    0.23238   0.12325   0.40737   1.000
    C69     C    0.16954   0.20307   0.35950   1.000
    C70     C    0.12252   0.26263   0.39804   1.000
    C71     C    0.14365   0.24838   0.48097   1.000
    C72     C    0.21169   0.17279   0.52591   1.000
    C73     C    0.25323   0.10806   0.48991   1.000
    C74     C    0.18645   0.20045   0.65424   1.000
    C75     C    0.22144   0.14957   0.74230   1.000
    C76     C    0.44334   0.75796   0.39799   1.000
    C77     C    0.71543   0.55755   0.32700   1.000
    C78     C    0.52338   0.67946   0.42458   1.000
    C79     C    0.58098   0.65868   0.36354   1.000
    C80     C    0.65335   0.58202   0.39024   1.000
    C81     C    0.67083   0.52867   0.47600   1.000
    C82     C    0.61307   0.55037   0.53710   1.000
    C83     C    0.53794   0.62484   0.51073   1.000
    C84     C    0.70828   0.43637   0.65209   1.000
    C85     C    0.70611   0.39808   0.74625   1.000
    C86     C    0.76955   0.43609   0.78451   1.000
    C87     C    0.77500   0.40782   0.87691   1.000
    C88     C    0.70742   0.29197   0.01197   1.000
    C89     C    0.75395   0.34791   0.05108   1.000
    C90     C    0.74016   0.31794   0.13907   1.000
    C91     C    0.68068   0.23169   0.18860   1.000
    C92     C    0.63049   0.17840   0.14832   1.000
    C93     C    0.64448   0.20759   0.06090   1.000
    C94     C    0.78031   0.38969   0.17409   1.000
    C95     C    0.55303   0.09714   0.19720   1.000
    C96     C    0.78015   0.12605   0.77294   1.000
    C97     C    0.04939   0.32101   0.84393   1.000
    C98     C    0.84040   0.14503   0.83606   1.000
    C99     C    0.91065   0.22653   0.80931   1.000
    C100    C    0.96838   0.24056   0.86968   1.000
    C101    C    0.95485   0.17506   0.95527   1.000
    C102    C    0.88225   0.09541   0.98213   1.000
    C103    C    0.82484   0.07987   0.92238   1.000
    C104    C    0.81605   0.94413   0.10121   1.000
    C105    C    0.84431   0.89087   0.19101   1.000
    C106    C    0.73075   0.95546   0.62478   1.000
    C107    C    0.95465   0.66211   0.64853   1.000
    C108    C    0.76677   0.87661   0.59363   1.000
    C109    C    0.82875   0.79614   0.64185   1.000
    C110    C    0.87561   0.73634   0.60348   1.000
    C111    C    0.85508   0.75099   0.52035   1.000
    C112    C    0.78779   0.82722   0.47504   1.000
    C113    C    0.74648   0.89219   0.51089   1.000
    C114    C    0.81392   0.79977   0.34673   1.000
    C115    C    0.77989   0.85086   0.25832   1.000
    C116    C    0.55680   0.24174   0.60294   1.000
    C117    C    0.28624   0.44413   0.67292   1.000
    C118    C    0.47691   0.32034   0.57600   1.000
    C119    C    0.41984   0.34207   0.63683   1.000
    C120    C    0.34765   0.41887   0.60983   1.000
    C121    C    0.32971   0.47136   0.52340   1.000
    C122    C    0.38710   0.44883   0.46322   1.000
    C123    C    0.46214   0.37428   0.48988   1.000
    C124    C    0.29186   0.56234   0.34813   1.000
    C125    C    0.29399   0.60024   0.25000   1.000
    C126    C    0.23083   0.56175   0.21589   1.000
    C127    C    0.22547   0.59003   0.12347   1.000
    C128    C    0.29252   0.70676   0.98850   1.000
    C129    C    0.24549   0.65150   0.94908   1.000
    C130    C    0.25899   0.68202   0.86100   1.000
    C131    C    0.31877   0.76820   0.81166   1.000
    C132    C    0.36941   0.82089   0.85230   1.000
    C133    C    0.35563   0.79111   0.93980   1.000
    C134    C    0.21820   0.61081   0.82571   1.000
    C135    C    0.44696   0.90225   0.80359   1.000
    C136    C    0.29341   0.93774   0.20186   1.000
    C137    C    0.19178   0.82294   0.30725   1.000
    C138    C    0.95984   0.59589   0.22419   1.000
    C139    C    0.88034   0.69637   0.10687   1.000
    C140    C    0.12905   0.95905   0.93340   1.000
    C141    C    0.25309   0.95058   0.43047   1.000
    C142    C    0.31051   0.07024   0.30295   1.000
    C143    C    0.97858   0.36521   0.39768   1.000
    C144    C    0.03601   0.36919   0.27360   1.000
    C145    C    0.23980   0.15184   0.60590   1.000
    C146    C    0.45353   0.83477   0.32694   1.000
    C147    C    0.36479   0.74114   0.44913   1.000
    C148    C    0.78651   0.49442   0.35283   1.000
    C149    C    0.69281   0.60455   0.24859   1.000
    C150    C    0.62260   0.50329   0.62234   1.000
    C151    C    0.71553   0.31736   0.92648   1.000
    C152    C    0.78182   0.48577   0.12083   1.000
    C153    C    0.80830   0.35895   0.24922   1.000
    C154    C    0.49715   0.06120   0.15550   1.000
    C155    C    0.53810   0.06763   0.27652   1.000
    C156    C    0.70679   0.06269   0.79964   1.000
    C157    C    0.80846   0.17682   0.69381   1.000
    C158    C    0.04388   0.40278   0.77674   1.000
    C159    C    0.12428   0.30095   0.89297   1.000
    C160    C    0.87530   0.03881   0.06718   1.000
    C161    C    0.74677   0.04945   0.57024   1.000
    C162    C    0.68997   0.93018   0.69818   1.000
    C163    C    0.01940   0.63360   0.60424   1.000
    C164    C    0.96107   0.62920   0.72832   1.000
    C165    C    0.76035   0.84857   0.39474   1.000
    C166    C    0.54640   0.16498   0.67401   1.000
    C167    C    0.63547   0.25853   0.55197   1.000
    C168    C    0.21382   0.50557   0.64750   1.000
    C169    C    0.31110   0.39924   0.75096   1.000
    C170    C    0.37731   0.49515   0.37804   1.000
    C171    C    0.28467   0.68073   0.07409   1.000
    C172    C    0.21492   0.51468   0.87901   1.000
    C173    C    0.19122   0.64185   0.75025   1.000
    C174    C    0.50272   0.93810   0.84546   1.000
    C175    C    0.46199   0.93194   0.72429   1.000
    O176    O    0.97766   0.18002   0.97764   1.000
    O177    O    0.73069   0.31994   0.03153   1.000
    O178    O    0.67595   0.24978   0.03644   1.000
    O179    O    0.71148   0.30467   0.96923   1.000
    O180    O    0.77658   0.38226   0.03300   1.000
    O181    O    0.08528   0.86292   0.03183   1.000
    O182    O    0.14951   0.91109   0.04850   1.000
    O183    O    0.12521   0.93099   0.97595   1.000
    O184    O    0.62402   0.18718   0.04565   1.000
    O185    O    0.04218   0.79034   0.08797   1.000
    O186    O    0.02460   0.81767   0.02161   1.000
    O187    O    0.74705   0.33292   0.09508   1.000
    O188    O    0.20592   0.94998   0.06949   1.000
    O189    O    0.63749   0.19299   0.10461   1.000
    O190    O    0.82621   0.92091   0.08300   1.000
    O191    O    0.84568   0.99147   0.08419   1.000
    O192    O    0.87878   0.06711   0.02466   1.000
    O193    O    0.25507   0.63538   0.09878   1.000
    O194    O    0.28860   0.69374   0.03130   1.000
    O195    O    0.16955   0.88683   0.12166   1.000
    O196    O    0.77546   0.95253   0.09878   1.000
    O197    O    0.83018   0.91750   0.14611   1.000
    O198    O    0.18580   0.59610   0.11458   1.000
    O199    O    0.91746   0.68671   0.13168   1.000
    O200    O    0.83069   0.64250   0.13570   1.000
    O201    O    0.23895   0.55722   0.11654   1.000
    O202    O    0.78142   0.53720   0.14268   1.000
    O203    O    0.78106   0.43773   0.14746   1.000
    O204    O    0.22815   0.57589   0.16968   1.000
    O205    O    0.99487   0.71741   0.14364   1.000
    O206    O    0.06346   0.76514   0.16109   1.000
    O207    O    0.76024   0.35381   0.15658   1.000
    O208    O    0.71042   0.27481   0.16384   1.000
    O209    O    0.65559   0.20504   0.16846   1.000
    O210    O    0.59176   0.13777   0.17276   1.000
    O211    O    0.52509   0.07917   0.17635   1.000
    O212    O    0.45086   0.02278   0.20677   1.000
    O213    O    0.95721   0.63647   0.19034   1.000
    O214    O    0.73692   0.59659   0.20656   1.000
    O215    O    0.83943   0.51621   0.22941   1.000
    O216    O    0.12660   0.81345   0.17811   1.000
    O217    O    0.19096   0.86414   0.19653   1.000
    O218    O    0.79431   0.37432   0.21166   1.000
    O219    O    0.67434   0.22031   0.22258   1.000
    O220    O    0.88493   0.88898   0.19531   1.000
    O221    O    0.81210   0.87086   0.22467   1.000
    O222    O    0.08607   0.74731   0.22475   1.000
    O223    O    0.54557   0.08238   0.23686   1.000
    O224    O    0.25695   0.90581   0.21505   1.000
    O225    O    0.34899   0.96104   0.22995   1.000
    O226    O    0.26241   0.58100   0.23295   1.000
    O227    O    0.20348   0.53152   0.23481   1.000
    O228    O    0.32167   0.63022   0.23350   1.000
    O229    O    0.92883   0.51984   0.25924   1.000
    O230    O    0.20613   0.84841   0.26775   1.000
    O231    O    0.70412   0.58105   0.28780   1.000
    O232    O    0.85306   0.40136   0.27176   1.000
    O233    O    0.29293   0.58129   0.29907   1.000
    O234    O    0.73910   0.85330   0.25494   1.000
    O235    O    0.47134   0.02599   0.26728   1.000
    O236    O    0.35754   0.02730   0.28050   1.000
    O237    O    0.42905   0.90956   0.29249   1.000
    O238    O    0.79691   0.82531   0.30252   1.000
    O239    O    0.96692   0.40649   0.28395   1.000
    O240    O    0.03952   0.35283   0.31350   1.000
    O241    O    0.84217   0.46910   0.32356   1.000
    O242    O    0.93820   0.40450   0.34598   1.000
    O243    O    0.16079   0.20911   0.32741   1.000
    O244    O    0.57481   0.67959   0.33002   1.000
    O245    O    0.28979   0.05746   0.33954   1.000
    O246    O    0.22919   0.83328   0.34935   1.000
    O247    O    0.44843   0.79636   0.36247   1.000
    O248    O    0.75097   0.52598   0.33992   1.000
    O249    O    0.68439   0.56979   0.35862   1.000
    O250    O    0.85498   0.80497   0.34745   1.000
    O251    O    0.80483   0.75814   0.36100   1.000
    O252    O    0.78714   0.82417   0.37074   1.000
    O253    O    0.29477   0.59441   0.35814   1.000
    O254    O    0.25683   0.54021   0.36275   1.000
    O255    O    0.33458   0.52874   0.36308   1.000
    O256    O    0.01080   0.35084   0.37554   1.000
    O257    O    0.08277   0.29954   0.37572   1.000
    O258    O    0.14603   0.23285   0.37877   1.000
    O259    O    0.20096   0.16316   0.38344   1.000
    O260    O    0.61716   0.62035   0.37689   1.000
    O261    O    0.55218   0.66907   0.39406   1.000
    O262    O    0.25073   0.08396   0.39175   1.000
    O263    O    0.26109   0.99762   0.40330   1.000
    O264    O    0.38221   0.47199   0.42063   1.000
    O265    O    0.66209   0.55534   0.43312   1.000
    O266    O    0.25984   0.89710   0.41096   1.000
    O267    O    0.31569   0.79238   0.42029   1.000
    O268    O    0.77407   0.83790   0.43489   1.000
    O269    O    0.48336   0.71871   0.41129   1.000
    O270    O    0.40407   0.74955   0.42356   1.000
    O271    O    0.13309   0.25550   0.43950   1.000
    O272    O    0.24281   0.11566   0.44864   1.000
    O273    O    0.53066   0.65215   0.46766   1.000
    O274    O    0.48492   0.36629   0.46629   1.000
    O275    O    0.42462   0.41156   0.47655   1.000
    O276    O    0.35841   0.46009   0.49331   1.000
    O277    O    0.72333   0.92399   0.49161   1.000
    O278    O    0.76713   0.85970   0.49297   1.000
    O279    O    0.82143   0.78911   0.49770   1.000
    O280    O    0.69962   0.49944   0.48518   1.000
    O281    O    0.64195   0.53952   0.50655   1.000
    O282    O    0.12427   0.27206   0.49486   1.000
    O283    O    0.17767   0.21058   0.50344   1.000
    O284    O    0.46952   0.34731   0.53294   1.000
    O285    O    0.23246   0.14043   0.50791   1.000
    O286    O    0.27672   0.07651   0.50907   1.000
    O287    O    0.87442   0.72724   0.50652   1.000
    O288    O    0.30096   0.50062   0.51447   1.000
    O289    O    0.57550   0.58761   0.52392   1.000
    O290    O    0.51503   0.63256   0.53441   1.000
    O291    O    0.75662   0.88440   0.55226   1.000
    O292    O    0.86534   0.74367   0.56192   1.000
    O293    O    0.33868   0.44511   0.56661   1.000
    O294    O    0.22574   0.16232   0.56590   1.000
    O295    O    0.61783   0.52683   0.57972   1.000
    O296    O    0.59613   0.25014   0.57746   1.000
    O297    O    0.68453   0.20733   0.58083   1.000
    O298    O    0.74018   0.10279   0.58996   1.000
    O299    O    0.73876   0.00245   0.59751   1.000
    O300    O    0.51685   0.28104   0.58947   1.000
    O301    O    0.44838   0.33120   0.60642   1.000
    O302    O    0.74876   0.91604   0.60920   1.000
    O303    O    0.79776   0.83638   0.61774   1.000
    O304    O    0.55160   0.20336   0.63848   1.000
    O305    O    0.85218   0.76624   0.62267   1.000
    O306    O    0.91513   0.69922   0.62601   1.000
    O307    O    0.98703   0.64785   0.62639   1.000
    O308    O    0.06074   0.59486   0.65516   1.000
    O309    O    0.21312   0.17615   0.63007   1.000
    O310    O    0.77103   0.16648   0.65175   1.000
    O311    O    0.38375   0.38047   0.62333   1.000
    O312    O    0.31695   0.43150   0.64138   1.000
    O313    O    0.66544   0.46983   0.63722   1.000
    O314    O    0.74325   0.45865   0.63753   1.000
    O315    O    0.71036   0.94282   0.66148   1.000
    O316    O    0.19531   0.24213   0.63989   1.000
    O317    O    0.70553   0.40441   0.64194   1.000
    O318    O    0.42615   0.32149   0.67033   1.000
    O319    O    0.83729   0.78998   0.67401   1.000
    O320    O    0.25003   0.47485   0.66021   1.000
    O321    O    0.15795   0.53085   0.67679   1.000
    O322    O    0.95786   0.64565   0.68843   1.000
    O323    O    0.70719   0.41723   0.69917   1.000
    O324    O    0.14539   0.19498   0.65382   1.000
    O325    O    0.20394   0.17501   0.69827   1.000
    O326    O    0.29867   0.42168   0.71194   1.000
    O327    O    0.57098   0.09028   0.70867   1.000
    O328    O    0.79431   0.15144   0.73337   1.000
    O329    O    0.64277   0.97288   0.72076   1.000
    O330    O    0.03157   0.59267   0.71720   1.000
    O331    O    0.14665   0.59899   0.72816   1.000
    O332    O    0.07298   0.47945   0.74141   1.000
    O333    O    0.52878   0.97376   0.73381   1.000
    O334    O    0.45448   0.91709   0.76394   1.000
    O335    O    0.26228   0.14778   0.74545   1.000
    O336    O    0.18957   0.12876   0.77613   1.000
    O337    O    0.91609   0.25186   0.77596   1.000
    O338    O    0.65118   0.03914   0.77149   1.000
    O339    O    0.54914   0.97684   0.79440   1.000
    O340    O    0.32501   0.77980   0.77769   1.000
    O341    O    0.67830   0.36820   0.76468   1.000
    O342    O    0.73783   0.41709   0.76538   1.000
    O343    O    0.79697   0.46625   0.76564   1.000
    O344    O    0.20471   0.62633   0.78798   1.000
    O345    O    0.26644   0.40526   0.79342   1.000
    O346    O    0.74347   0.09437   0.78629   1.000
    O347    O    0.81027   0.13554   0.80450   1.000
    O348    O    0.04664   0.36189   0.81034   1.000
    O349    O    0.77228   0.42195   0.83071   1.000
    O350    O    0.11706   0.10917   0.80590   1.000
    O351    O    0.47484   0.92018   0.82453   1.000
    O352    O    0.40819   0.86157   0.82795   1.000
    O353    O    0.87552   0.18578   0.82268   1.000
    O354    O    0.93951   0.23354   0.83950   1.000
    O355    O    0.17228   0.08130   0.85473   1.000
    O356    O    0.34409   0.79455   0.83198   1.000
    O357    O    0.28888   0.72511   0.83633   1.000
    O358    O    0.23859   0.64642   0.84336   1.000
    O359    O    0.21656   0.56274   0.85236   1.000
    O360    O    0.21835   0.46298   0.85745   1.000
    O361    O    0.17303   0.35612   0.86443   1.000
    O362    O    0.83262   0.11245   0.87922   1.000
    O363    O    0.00889   0.28078   0.85681   1.000
    O364    O    0.08684   0.31098   0.86845   1.000
    O365    O    0.36252   0.80600   0.89605   1.000
    O366    O    0.25224   0.66676   0.90504   1.000
    O367    O    0.96162   0.20781   0.91248   1.000
    O368    O    0.76168   0.44075   0.88375   1.000
    O369    O    0.81467   0.40163   0.88581   1.000
    O370    O    0.74527   0.36259   0.90170   1.000
    O371    O    0.22758   0.04687   0.90169   1.000
    O372    O    0.15795   0.00684   0.91645   1.000
    O373    O    0.17635   0.07753   0.91787   1.000
    O374    O    0.79641   0.04928   0.93148   1.000
    O375    O    0.85354   0.08764   0.95226   1.000
    O376    O    0.37623   0.81129   0.95517   1.000
    O377    O    0.32408   0.74894   0.96415   1.000
    O378    O    0.22275   0.61721   0.96704   1.000
    O379    O    0.26901   0.67913   0.96879   1.000
    O380    O    0.91855   0.13524   0.96870   1.000
loop_
    _geom_bond_atom_site_label_1
    _geom_bond_atom_site_label_2
    _geom_bond_distance
    _geom_bond_site_symmetry_2
    _ccdc_geom_bond_type
    C33    O176      0.52853  1_454   S
    C101   O176      0.52853      .   S
    C88    O177      0.69756      .   S
    C89    O177      0.69756      .   S
    C88    O178      0.70117      .   S
    C93    O178      0.70117      .   S
    C88    O179      0.68537  1_554   S
    C151   O179      0.68537      .   S
    C29    O180      0.54243      .   S
    C89    O180      0.54243      .   S
    C62    O181      0.70018      .   S
    C61    O181      0.70018      .   S
    C62    O182      0.69944      .   S
    C63    O182      0.69944      .   S
    C62    O183      0.67938  1_554   S
    C140   O183      0.67938      .   S
    C31    O184      0.54442      .   S
    C93    O184      0.54442      .   S
    C61    O185      0.69762      .   S
    C60    O185      0.69762      .   S
    C61    O186      0.56142      .   S
    C9     O186      0.56142  1_556   S
    C89    O187      0.70314      .   S
    C90    O187      0.70314      .   S
    C10    O188      0.54378      .   S
    C63    O188      0.54378      .   S
    C93    O189      0.69931      .   S
    C92    O189      0.69931      .   S
    C35    O190      0.55268      .   S
    C104   O190      0.55268      .   S
    C160   O191      0.72344  1_545   S
    C104   O191      0.72344      .   S
    C160   O192      0.67943      .   S
    C102   O192      0.67943  1_556   S
    C171   O193      0.71695      .   S
    C127   O193      0.71695      .   S
    C171   O194      0.68538      .   S
    C128   O194      0.68538  1_556   S
    C63    O195      0.70337      .   S
    C58    O195      0.70337      .   S
    C36    O196      0.55130      .   S
    C104   O196      0.55130      .   S
    C104   O197      0.74591      .   S
    C105   O197      0.74591      .   S
    C52    O198      0.55228      .   S
    C127   O198      0.55228      .   S
    C139   O199      0.64625      .   S
    C57    O199      0.64625      .   S
    C139   O200      0.96470      .   S
    C2     O200      0.96470      .   S
    C51    O201      0.55314      .   S
    C127   O201      0.55314      .   S
    C152   O202      0.94800      .   S
    C2     O202      0.94800      .   S
    C152   O203      0.65008      .   S
    C94    O203      0.65008      .   S
    C127   O204      0.74324      .   S
    C126   O204      0.74324      .   S
    C60    O205      0.74241  1_455   S
    C57    O205      0.74241      .   S
    C60    O206      0.69983      .   S
    C59    O206      0.69983      .   S
    C90    O207      0.74521      .   S
    C94    O207      0.74521      .   S
    C90    O208      0.69787      .   S
    C91    O208      0.69787      .   S
    C92    O209      0.70261      .   S
    C91    O209      0.70261      .   S
    C92    O210      0.74779      .   S
    C95    O210      0.74779      .   S
    C154   O211      0.64828      .   S
    C95    O211      0.64828      .   S
    C154   O212      1.00947      .   S
    C3     O212      1.00947  1_565   S
    C57    O213      0.63587      .   S
    C138   O213      0.63587      .   S
    C2     O214      0.95337      .   S
    C149   O214      0.95337      .   S
    C2     O215      1.43546      .   S
    C1     O215      1.43546      .   S
    C58    O216      0.69854      .   S
    C59    O216      0.69854      .   S
    C58    O217      0.74516      .   S
    C56    O217      0.74516      .   S
    C94    O218      0.63268      .   S
    C153   O218      0.63268      .   S
    C91    O219      0.54461      .   S
    C30    O219      0.54461      .   S
    C105   O220      0.54675      .   S
    C37    O220      0.54675      .   S
    C105   O221      0.66716      .   S
    C115   O221      0.66716      .   S
    C59    O222      0.54322      .   S
    C8     O222      0.54322      .   S
    C95    O223      0.63327      .   S
    C155   O223      0.63327      .   S
    C136   O224      0.63152      .   S
    C56    O224      0.63152      .   S
    C136   O225      1.02721      .   S
    C3     O225      1.02721      .   S
    C126   O226      0.64419      .   S
    C125   O226      0.64419      .   S
    C126   O227      0.54665      .   S
    C50    O227      0.54665      .   S
    C49    O228      0.53865      .   S
    C125   O228      0.53865      .   S
    C138   O229      1.07308      .   S
    C1     O229      1.07308      .   S
    C56    O230      0.64915      .   S
    C137   O230      0.64915      .   S
    C149   O231      0.64765      .   S
    C77    O231      0.64765      .   S
    C153   O232      1.03999      .   S
    C1     O232      1.03999      .   S
    C125   O233      0.77845      .   S
    C124   O233      0.77845      .   S
    C43    O234      0.54680      .   S
    C115   O234      0.54680      .   S
    C3     O235      1.11954  1_565   S
    C155   O235      1.11954      .   S
    C3     O236      1.03840  1_565   S
    C142   O236      1.03840      .   S
    C3     O237      1.04506      .   S
    C146   O237      1.04506      .   S
    C115   O238      0.74702      .   S
    C114   O238      0.74702      .   S
    C144   O239      1.10065  1_455   S
    C1     O239      1.10065      .   S
    C144   O240      0.63645      .   S
    C67    O240      0.63645      .   S
    C1     O241      1.02020      .   S
    C148   O241      1.02020      .   S
    C1     O242      1.01843      .   S
    C143   O242      1.01843      .   S
    C14    O243      0.54412      .   S
    C69    O243      0.54412      .   S
    C20    O244      0.54376      .   S
    C79    O244      0.54376      .   S
    C142   O245      0.63188      .   S
    C66    O245      0.63188      .   S
    C137   O246      0.95863      .   S
    C0     O246      0.95863      .   S
    C146   O247      0.63569      .   S
    C76    O247      0.63569      .   S
    C77    O248      0.63327      .   S
    C148   O248      0.63327      .   S
    C77    O249      0.74400      .   S
    C80    O249      0.74400      .   S
    C114   O250      0.55156      .   S
    C42    O250      0.55156      .   S
    C114   O251      0.55155      .   S
    C41    O251      0.55155      .   S
    C114   O252      0.72120      .   S
    C165   O252      0.72120      .   S
    C124   O253      0.55062      .   S
    C47    O253      0.55062      .   S
    C124   O254      0.55145      .   S
    C48    O254      0.55145      .   S
    C124   O255      0.72695      .   S
    C170   O255      0.72695      .   S
    C67    O256      0.64659      .   S
    C143   O256      0.64659  1_655   S
    C67    O257      0.74567      .   S
    C70    O257      0.74567      .   S
    C69    O258      0.70020      .   S
    C70    O258      0.70020      .   S
    C69    O259      0.70106      .   S
    C68    O259      0.70106      .   S
    C79    O260      0.69814      .   S
    C80    O260      0.69814      .   S
    C79    O261      0.69971      .   S
    C78    O261      0.69971      .   S
    C66    O262      0.74711      .   S
    C68    O262      0.74711      .   S
    C66    O263      0.64778  1_545   S
    C141   O263      0.64778      .   S
    C170   O264      0.68027      .   S
    C122   O264      0.68027      .   S
    C80    O265      0.69781      .   S
    C81    O265      0.69781      .   S
    C0     O266      0.94988      .   S
    C141   O266      0.94988      .   S
    C0     O267      0.96798      .   S
    C147   O267      0.96798      .   S
    C165   O268      0.68154      .   S
    C112   O268      0.68154      .   S
    C76    O269      0.74275      .   S
    C78    O269      0.74275      .   S
    C76    O270      0.64574      .   S
    C147   O270      0.64574      .   S
    C70    O271      0.70315      .   S
    C71    O271      0.70315      .   S
    C68    O272      0.69765      .   S
    C73    O272      0.69765      .   S
    C78    O273      0.69783      .   S
    C83    O273      0.69783      .   S
    C46    O274      0.54419      .   S
    C123   O274      0.54419      .   S
    C122   O275      0.70124      .   S
    C123   O275      0.70124      .   S
    C122   O276      0.69944      .   S
    C121   O276      0.69944      .   S
    C40    O277      0.54447      .   S
    C113   O277      0.54447      .   S
    C112   O278      0.70045      .   S
    C113   O278      0.70045      .   S
    C112   O279      0.69946      .   S
    C111   O279      0.69946      .   S
    C81    O280      0.54305      .   S
    C21    O280      0.54305      .   S
    C81    O281      0.70406      .   S
    C82    O281      0.70406      .   S
    C71    O282      0.54381      .   S
    C15    O282      0.54381      .   S
    C71    O283      0.69943      .   S
    C72    O283      0.69943      .   S
    C123   O284      0.69730      .   S
    C118   O284      0.69730      .   S
    C73    O285      0.70050      .   S
    C72    O285      0.70050      .   S
    C73    O286      0.54449      .   S
    C16    O286      0.54449      .   S
    C39    O287      0.54380      .   S
    C111   O287      0.54380      .   S
    C45    O288      0.54298      .   S
    C121   O288      0.54298      .   S
    C83    O289      0.70125      .   S
    C82    O289      0.70125      .   S
    C83    O290      0.54421      .   S
    C22    O290      0.54421      .   S
    C113   O291      0.69772      .   S
    C108   O291      0.69772      .   S
    C111   O292      0.70310      .   S
    C110   O292      0.70310      .   S
    C121   O293      0.70276      .   S
    C120   O293      0.70276      .   S
    C72    O294      0.68100      .   S
    C145   O294      0.68100      .   S
    C82    O295      0.68074      .   S
    C150   O295      0.68074      .   S
    C167   O296      0.64554      .   S
    C116   O296      0.64554      .   S
    C167   O297      0.96747      .   S
    C4     O297      0.96747      .   S
    C161   O298      0.95027      .   S
    C4     O298      0.95027      .   S
    C161   O299      0.64779      .   S
    C106   O299      0.64779  1_565   S
    C118   O300      0.74260      .   S
    C116   O300      0.74260      .   S
    C118   O301      0.69991      .   S
    C119   O301      0.69991      .   S
    C108   O302      0.74693      .   S
    C106   O302      0.74693      .   S
    C108   O303      0.70103      .   S
    C109   O303      0.70103      .   S
    C116   O304      0.63572      .   S
    C166   O304      0.63572      .   S
    C110   O305      0.70014      .   S
    C109   O305      0.70014      .   S
    C110   O306      0.74579      .   S
    C107   O306      0.74579      .   S
    C163   O307      0.64700  1_455   S
    C107   O307      0.64700      .   S
    C163   O308      1.01516      .   S
    C5     O308      1.01516      .   S
    C145   O309      0.72165      .   S
    C74    O309      0.72165      .   S
    C4     O310      0.95840      .   S
    C157   O310      0.95840      .   S
    C120   O311      0.69808      .   S
    C119   O311      0.69808      .   S
    C120   O312      0.74366      .   S
    C117   O312      0.74366      .   S
    C150   O313      0.72701      .   S
    C84    O313      0.72701      .   S
    C24    O314      0.55145      .   S
    C84    O314      0.55145      .   S
    C106   O315      0.63212      .   S
    C162   O315      0.63212      .   S
    C17    O316      0.55158      .   S
    C74    O316      0.55158      .   S
    C23    O317      0.55058      .   S
    C84    O317      0.55058      .   S
    C119   O318      0.54323      .   S
    C44    O318      0.54323      .   S
    C109   O319      0.54413      .   S
    C38    O319      0.54413      .   S
    C168   O320      0.63309      .   S
    C117   O320      0.63309      .   S
    C168   O321      1.02212      .   S
    C5     O321      1.02212      .   S
    C107   O322      0.63580      .   S
    C164   O322      0.63580      .   S
    C84    O323      0.74576      .   S
    C85    O323      0.74576      .   S
    C18    O324      0.55156      .   S
    C74    O324      0.55156      .   S
    C74    O325      0.74661      .   S
    C75    O325      0.74661      .   S
    C117   O326      0.64805      .   S
    C169   O326      0.64805      .   S
    C166   O327      1.04511      .   S
    C7     O327      1.04511      .   S
    C157   O328      0.64922      .   S
    C96    O328      0.64922      .   S
    C162   O329      1.03838      .   S
    C7     O329      1.03838  1_545   S
    C5     O330      1.11456      .   S
    C164   O330      1.11456  1_655   S
    C5     O331      1.03816      .   S
    C173   O331      1.03816      .   S
    C5     O332      1.07189      .   S
    C158   O332      1.07189      .   S
    C175   O333      1.12322      .   S
    C7     O333      1.12322  1_545   S
    C175   O334      0.63303      .   S
    C135   O334      0.63303      .   S
    C75    O335      0.54684      .   S
    C19    O335      0.54684      .   S
    C75    O336      0.66734      .   S
    C65    O336      0.66734      .   S
    C32    O337      0.54329      .   S
    C99    O337      0.54329      .   S
    C7     O338      1.03007      .   S
    C156   O338      1.03007      .   S
    C7     O339      1.00913  1_545   S
    C174   O339      1.00913      .   S
    C54    O340      0.54405      .   S
    C131   O340      0.54405      .   S
    C85    O341      0.54585      .   S
    C25    O341      0.54585      .   S
    C85    O342      0.66751      .   S
    C86    O342      0.66751      .   S
    C26    O343      0.54662      .   S
    C86    O343      0.54662      .   S
    C173   O344      0.63284      .   S
    C134   O344      0.63284      .   S
    C169   O345      0.95196      .   S
    C6     O345      0.95196      .   S
    C96    O346      0.63171      .   S
    C156   O346      0.63171      .   S
    C96    O347      0.74588      .   S
    C98    O347      0.74588      .   S
    C158   O348      0.63596      .   S
    C97    O348      0.63596      .   S
    C86    O349      0.74315      .   S
    C87    O349      0.74315      .   S
    C13    O350      0.54673      .   S
    C65    O350      0.54673      .   S
    C135   O351      0.64848      .   S
    C174   O351      0.64848      .   S
    C135   O352      0.74826      .   S
    C132   O352      0.74826      .   S
    C99    O353      0.69893      .   S
    C98    O353      0.69893      .   S
    C99    O354      0.70021      .   S
    C100   O354      0.70021      .   S
    C65    O355      0.74583      .   S
    C64    O355      0.74583      .   S
    C131   O356      0.70326      .   S
    C132   O356      0.70326      .   S
    C131   O357      0.69824      .   S
    C130   O357      0.69824      .   S
    C134   O358      0.74527      .   S
    C130   O358      0.74527      .   S
    C134   O359      0.65033      .   S
    C172   O359      0.65033      .   S
    C6     O360      0.94836      .   S
    C172   O360      0.94836      .   S
    C6     O361      0.96707      .   S
    C159   O361      0.96707      .   S
    C98    O362      0.70338      .   S
    C103   O362      0.70338      .   S
    C97    O363      0.74315      .   S
    C100   O363      0.74315  1_655   S
    C97    O364      0.64636      .   S
    C159   O364      0.64636      .   S
    C132   O365      0.69929      .   S
    C133   O365      0.69929      .   S
    C130   O366      0.70322      .   S
    C129   O366      0.70322      .   S
    C100   O367      0.69775      .   S
    C101   O367      0.69775      .   S
    C87    O368      0.55316      .   S
    C27    O368      0.55316      .   S
    C87    O369      0.55229      .   S
    C28    O369      0.55229      .   S
    C87    O370      0.71712      .   S
    C151   O370      0.71712      .   S
    C64    O371      0.55130      .   S
    C12    O371      0.55130      .   S
    C64    O372      0.72340      .   S
    C140   O372      0.72340  1_565   S
    C64    O373      0.55210      .   S
    C11    O373      0.55210      .   S
    C103   O374      0.54378      .   S
    C34    O374      0.54378      .   S
    C103   O375      0.69941      .   S
    C102   O375      0.69941      .   S
    C133   O376      0.54448      .   S
    C55    O376      0.54448      .   S
    C133   O377      0.70122      .   S
    C128   O377      0.70122      .   S
    C129   O378      0.54234      .   S
    C53    O378      0.54234      .   S
    C129   O379      0.69744      .   S
    C128   O379      0.69744      .   S
    C101   O380      0.70031      .   S
    C102   O380      0.70031      .   S
