# CIF file generated by openbabel 2.4.90, see http://openbabel.sf.net
data_I
_chemical_name_common ''
_cell_length_a 13.273
_cell_length_b 14.197
_cell_length_c 17.285
_cell_angle_alpha 66.122
_cell_angle_beta 87.262
_cell_angle_gamma 89.829
_space_group_name_H-M_alt 'P 1'
_space_group_name_Hall 'P 1'
loop_
    _symmetry_equiv_pos_as_xyz
    x,y,z
loop_
    _atom_site_label
    _atom_site_type_symbol
    _atom_site_fract_x
    _atom_site_fract_y
    _atom_site_fract_z
    _atom_site_occupancy
    N0      N    0.14942   0.03457   0.77652   1.000
    N1      N    0.85152   0.96470   0.22437   1.000
    N2      N    0.33662   0.56352   0.22863   1.000
    N3      N    0.66351   0.43595   0.77160   1.000
    Zr4     Zr   0.83943   0.51621   0.22941   1.000
    O5      O    0.79614   0.48437   0.38849   1.000
    O6      O    0.79886   0.46743   0.37554   1.000
    O7      O    0.94880   0.36837   0.37982   1.000
    O8      O    0.94162   0.36787   0.39533   1.000
    O9      O    0.93928   0.39671   0.12364   1.000
    O10     O    0.78095   0.50139   0.09327   1.000
    O11     O    0.91474   0.67737   0.09276   1.000
    O12     O    0.76982   0.51624   0.10924   1.000
    Zr13    Zr   0.59557   0.01558   0.74333   1.000
    O14     O    0.67346   0.00875   0.87063   1.000
    O15     O    0.67136   0.99219   0.60795   1.000
    O16     O    0.52469   0.17124   0.60599   1.000
    O17     O    0.51922   0.89288   0.87742   1.000
    O18     O    0.51413   0.89211   0.86228   1.000
    Zr19    Zr   0.26659   0.84362   0.39145   1.000
    O20     O    0.22795   0.88877   0.47719   1.000
    O21     O    0.23561   0.90472   0.49259   1.000
    O22     O    0.37810   0.72889   0.49370   1.000
    Zr23    Zr   0.40457   0.98435   0.25804   1.000
    O24     O    0.48088   0.10686   0.12361   1.000
    O25     O    0.48600   0.10766   0.13874   1.000
    O26     O    0.32689   0.99108   0.13064   1.000
    O27     O    0.47543   0.82855   0.39504   1.000
    O28     O    0.32902   0.00764   0.39327   1.000
    Zr29    Zr   0.73360   0.15613   0.60968   1.000
    O30     O    0.77244   0.11086   0.52387   1.000
    O31     O    0.76472   0.09494   0.50842   1.000
    O32     O    0.62209   0.27078   0.50720   1.000
    Zr33    Zr   0.10207   0.55613   0.70608   1.000
    O34     O    0.03216   0.63910   0.84449   1.000
    O35     O    0.02181   0.66741   0.58843   1.000
    O36     O    0.02910   0.66796   0.57292   1.000
    O37     O    0.17468   0.55166   0.57940   1.000
    O38     O    0.17186   0.56869   0.59224   1.000
    Zr39    Zr   0.22178   0.41128   0.83588   1.000
    O40     O    0.11703   0.28585   0.94014   1.000
    O41     O    0.26166   0.44784   0.92345   1.000
    O42     O    0.24964   0.46227   0.93946   1.000
loop_
    _geom_bond_atom_site_label_1
    _geom_bond_atom_site_label_2
    _geom_bond_distance
    _geom_bond_site_symmetry_2
    _ccdc_geom_bond_type
    Zr4    O5        2.63446      .   S
    N3     O5        6.52925      .   S
    Zr4    O6        2.36775      .   S
    N3     O6        6.82980      .   S
    Zr4    O7        3.03259      .   S
    N0     O7        7.20608  1_455   S
    Zr4    O8        3.15672      .   S
    N0     O8        7.05889  1_455   S
    Zr4    O9        3.20043      .   S
    N0     O9        9.66963  1_456   S
    Zr4    O10       2.59997      .   S
    N3     O10       6.26306  1_556   S
    Zr4    O11       2.68816      .   S
    N0     O11       6.42839  1_446   S
    Zr4    O12       2.31304      .   S
    N3     O12       6.59792  1_556   S
    Zr13   O14       2.44210      .   S
    N1     O14       6.45287  1_564   S
    Zr13   O15       2.64588  1_545   S
    N1     O15       7.09950      .   S
    Zr13   O16       2.71256      .   S
    N2     O16       7.20105      .   S
    Zr13   O17       2.43943  1_545   S
    N2     O17       6.34611  1_554   S
    Zr13   O18       2.31287  1_545   S
    N2     O18       6.49140  1_554   S
    Zr19   O20       1.88815      .   S
    N0     O20       6.34679  1_545   S
    Zr19   O21       2.26614      .   S
    N0     O21       5.96379  1_545   S
    Zr19   O22       2.42320      .   S
    N3     O22       6.33980      .   S
    Zr23   O24       2.44206  1_565   S
    N3     O24       6.35375  1_556   S
    Zr23   O25       2.31534  1_565   S
    N3     O25       6.49903  1_556   S
    Zr23   O26       2.44292      .   S
    N0     O26       6.45796  1_546   S
    Zr23   O27       2.71008      .   S
    N3     O27       7.19465      .   S
    Zr23   O28       2.64170  1_565   S
    N0     O28       7.08856      .   S
    Zr29   O30       1.89090      .   S
    N1     O30       6.35380  1_565   S
    Zr29   O31       2.26901      .   S
    N1     O31       5.97061  1_565   S
    Zr29   O32       2.42475      .   S
    N2     O32       6.34527      .   S
    Zr33   O34       3.16778      .   S
    N1     O34       9.65586  1_654   S
    Zr33   O35       2.31560      .   S
    N1     O35       6.50549  1_655   S
    Zr33   O36       2.44980      .   S
    N1     O36       6.35216  1_655   S
    Zr33   O37       2.37451      .   S
    N2     O37       6.27204      .   S
    Zr33   O38       2.07470      .   S
    N2     O38       6.58395      .   S
    Zr39   O40       2.35148      .   S
    N1     O40       6.13608  1_664   S
    Zr39   O41       1.88542      .   S
    N2     O41       6.24804  1_554   S
    Zr39   O42       2.23158      .   S
    N2     O42       5.89584  1_554   S
