# CIF file generated by openbabel 2.4.90, see http://openbabel.sf.net
data_I
_chemical_name_common ''
_cell_length_a 14.039
_cell_length_b 14.068
_cell_length_c 14.791
_cell_angle_alpha 90.014
_cell_angle_beta 89.981
_cell_angle_gamma 89.986
_space_group_name_H-M_alt 'P 1'
_space_group_name_Hall 'P 1'
loop_
    _symmetry_equiv_pos_as_xyz
    x,y,z
loop_
    _atom_site_label
    _atom_site_type_symbol
    _atom_site_fract_x
    _atom_site_fract_y
    _atom_site_fract_z
    _atom_site_occupancy
    Zr0     Zr   0.49999   0.50000   0.00000   1.000
    Zr1     Zr   0.00003   0.99996   0.20000   1.000
    Zr2     Zr   0.99999   0.49998   0.50002   1.000
    Zr3     Zr   0.49999   0.00003   0.50004   1.000
    Zr4     Zr   0.83403   0.66604   0.20736   1.000
    Zr5     Zr   0.66594   0.83390   0.20736   1.000
    Zr6     Zr   0.83404   0.83386   0.70744   1.000
    Zr7     Zr   0.66592   0.66617   0.70745   1.000
    Zr8     Zr   0.16594   0.16613   0.29259   1.000
    Zr9     Zr   0.33405   0.33382   0.29258   1.000
    Zr10    Zr   0.16598   0.33388   0.79265   1.000
    Zr11    Zr   0.33400   0.16616   0.79260   1.000
    Zr12    Zr   0.79648   0.47814   0.12300   1.000
    Zr13    Zr   0.68638   0.41661   0.10916   1.000
    Zr14    Zr   0.74279   0.46643   0.01332   1.000
    Zr15    Zr   0.70325   0.02169   0.12284   1.000
    Zr16    Zr   0.81338   0.08326   0.10923   1.000
    Zr17    Zr   0.75724   0.03349   0.01320   1.000
    Zr18    Zr   0.02293   0.79543   0.62418   1.000
    Zr19    Zr   0.08400   0.68534   0.60938   1.000
    Zr20    Zr   0.03427   0.74265   0.51401   1.000
    Zr21    Zr   0.47719   0.70457   0.62416   1.000
    Zr22    Zr   0.41606   0.81465   0.60955   1.000
    Zr23    Zr   0.46582   0.75746   0.51409   1.000
    Zr24    Zr   0.20333   0.97804   0.37684   1.000
    Zr25    Zr   0.31346   0.91654   0.39080   1.000
    Zr26    Zr   0.25694   0.96642   0.48662   1.000
    Zr27    Zr   0.29651   0.52188   0.37668   1.000
    Zr28    Zr   0.18641   0.58340   0.39070   1.000
    Zr29    Zr   0.24296   0.53356   0.48651   1.000
    Zr30    Zr   0.97708   0.29588   0.87651   1.000
    Zr31    Zr   0.91589   0.18576   0.89049   1.000
    Zr32    Zr   0.96537   0.24244   0.98632   1.000
    Zr33    Zr   0.52283   0.20441   0.87618   1.000
    Zr34    Zr   0.58403   0.31449   0.89043   1.000
    Zr35    Zr   0.53439   0.25763   0.98611   1.000
    Zr36    Zr   0.20319   0.52174   0.87705   1.000
    Zr37    Zr   0.31321   0.58341   0.89087   1.000
    Zr38    Zr   0.25692   0.53353   0.98674   1.000
    Zr39    Zr   0.29669   0.97844   0.87710   1.000
    Zr40    Zr   0.18661   0.91680   0.89082   1.000
    Zr41    Zr   0.24279   0.96666   0.98676   1.000
    Zr42    Zr   0.97712   0.20443   0.37602   1.000
    Zr43    Zr   0.91599   0.31455   0.39040   1.000
    Zr44    Zr   0.96554   0.25754   0.48602   1.000
    Zr45    Zr   0.52274   0.29550   0.37590   1.000
    Zr46    Zr   0.58390   0.18540   0.39024   1.000
    Zr47    Zr   0.53433   0.24241   0.48589   1.000
    Zr48    Zr   0.79665   0.02198   0.62322   1.000
    Zr49    Zr   0.68654   0.08349   0.60917   1.000
    Zr50    Zr   0.74308   0.03355   0.51342   1.000
    Zr51    Zr   0.70345   0.47810   0.62338   1.000
    Zr52    Zr   0.81355   0.41657   0.60925   1.000
    Zr53    Zr   0.75697   0.46643   0.51354   1.000
    Zr54    Zr   0.02300   0.70428   0.12359   1.000
    Zr55    Zr   0.08410   0.81443   0.10938   1.000
    Zr56    Zr   0.03455   0.75755   0.01369   1.000
    Zr57    Zr   0.47699   0.79575   0.12371   1.000
    Zr58    Zr   0.41581   0.68566   0.10941   1.000
    Zr59    Zr   0.46550   0.74253   0.01376   1.000
    Zr60    Zr   0.67641   0.56712   0.10045   1.000
    Zr61    Zr   0.72914   0.47707   0.08574   1.000
    Zr62    Zr   0.88020   0.54234   0.34331   1.000
    Zr63    Zr   0.82344   0.93278   0.10040   1.000
    Zr64    Zr   0.77068   0.02281   0.08565   1.000
    Zr65    Zr   0.61980   0.95760   0.34326   1.000
    Zr66    Zr   0.93318   0.67624   0.60085   1.000
    Zr67    Zr   0.02362   0.72854   0.58634   1.000
    Zr68    Zr   0.95807   0.88006   0.84318   1.000
    Zr69    Zr   0.56690   0.82383   0.60087   1.000
    Zr70    Zr   0.47648   0.77151   0.58643   1.000
    Zr71    Zr   0.54194   0.61991   0.84329   1.000
    Zr72    Zr   0.32340   0.06702   0.39943   1.000
    Zr73    Zr   0.27063   0.97701   0.41420   1.000
    Zr74    Zr   0.11964   0.04240   0.15682   1.000
    Zr75    Zr   0.17647   0.43292   0.39942   1.000
    Zr76    Zr   0.22923   0.52293   0.41411   1.000
    Zr77    Zr   0.38025   0.45766   0.15675   1.000
    Zr78    Zr   0.06671   0.17645   0.89947   1.000
    Zr79    Zr   0.97624   0.22875   0.91393   1.000
    Zr80    Zr   0.04208   0.38008   0.65678   1.000
    Zr81    Zr   0.43319   0.32378   0.89927   1.000
    Zr82    Zr   0.52364   0.27147   0.91375   1.000
    Zr83    Zr   0.45794   0.11989   0.65671   1.000
    Zr84    Zr   0.32341   0.43292   0.89959   1.000
    Zr85    Zr   0.27055   0.52289   0.91432   1.000
    Zr86    Zr   0.11979   0.45762   0.65673   1.000
    Zr87    Zr   0.17648   0.06731   0.89960   1.000
    Zr88    Zr   0.22927   0.97730   0.91433   1.000
    Zr89    Zr   0.38019   0.04238   0.65675   1.000
    Zr90    Zr   0.06678   0.32373   0.39918   1.000
    Zr91    Zr   0.97634   0.27144   0.41367   1.000
    Zr92    Zr   0.04183   0.11990   0.15691   1.000
    Zr93    Zr   0.43309   0.17619   0.39915   1.000
    Zr94    Zr   0.52353   0.22849   0.41350   1.000
    Zr95    Zr   0.45801   0.38013   0.15673   1.000
    Zr96    Zr   0.67659   0.93300   0.60061   1.000
    Zr97    Zr   0.72936   0.02300   0.58584   1.000
    Zr98    Zr   0.88029   0.95759   0.84322   1.000
    Zr99    Zr   0.82349   0.56705   0.60061   1.000
    Zr100   Zr   0.77073   0.47705   0.58594   1.000
    Zr101   Zr   0.61971   0.54239   0.84330   1.000
    Zr102   Zr   0.93325   0.82360   0.10057   1.000
    Zr103   Zr   0.02375   0.77135   0.08606   1.000
    Zr104   Zr   0.95789   0.61989   0.34328   1.000
    Zr105   Zr   0.56664   0.67637   0.10064   1.000
    Zr106   Zr   0.47620   0.72869   0.08610   1.000
    Zr107   Zr   0.54204   0.88011   0.34330   1.000
    Zr108   Zr   0.71215   0.64289   0.14315   1.000
    Zr109   Zr   0.78773   0.85697   0.14306   1.000
    Zr110   Zr   0.85713   0.71204   0.64337   1.000
    Zr111   Zr   0.64286   0.78803   0.64347   1.000
    Zr112   Zr   0.28772   0.14290   0.35678   1.000
    Zr113   Zr   0.21222   0.35703   0.35679   1.000
    Zr114   Zr   0.14267   0.21218   0.85670   1.000
    Zr115   Zr   0.35724   0.28800   0.85668   1.000
    Zr116   Zr   0.28779   0.35706   0.85684   1.000
    Zr117   Zr   0.21213   0.14313   0.85687   1.000
    Zr118   Zr   0.14285   0.28793   0.35668   1.000
    Zr119   Zr   0.35713   0.21197   0.35653   1.000
    Zr120   Zr   0.71228   0.85710   0.64324   1.000
    Zr121   Zr   0.78775   0.64294   0.64326   1.000
    Zr122   Zr   0.85736   0.78775   0.14322   1.000
    Zr123   Zr   0.64258   0.71217   0.14322   1.000
    Zr124   Zr   0.58569   0.58593   0.07252   1.000
    Zr125   Zr   0.91415   0.91400   0.07242   1.000
    Zr126   Zr   0.91418   0.58581   0.57265   1.000
    Zr127   Zr   0.58591   0.91425   0.57269   1.000
    Zr128   Zr   0.41406   0.08579   0.42741   1.000
    Zr129   Zr   0.08579   0.41415   0.42740   1.000
    Zr130   Zr   0.08575   0.08606   0.92759   1.000
    Zr131   Zr   0.41412   0.41421   0.92749   1.000
    Zr132   Zr   0.88273   0.47824   0.40181   1.000
    Zr133   Zr   0.81664   0.55001   0.28120   1.000
    Zr134   Zr   0.61724   0.02175   0.40170   1.000
    Zr135   Zr   0.68339   0.94992   0.28109   1.000
    Zr136   Zr   0.02255   0.88271   0.90137   1.000
    Zr137   Zr   0.95012   0.81653   0.78109   1.000
    Zr138   Zr   0.47756   0.61722   0.90166   1.000
    Zr139   Zr   0.54974   0.68343   0.78126   1.000
    Zr140   Zr   0.11713   0.97828   0.09831   1.000
    Zr141   Zr   0.18334   0.05012   0.21886   1.000
    Zr142   Zr   0.38278   0.52180   0.09829   1.000
    Zr143   Zr   0.31663   0.44992   0.21884   1.000
    Zr144   Zr   0.97779   0.38272   0.59835   1.000
    Zr145   Zr   0.04985   0.31656   0.71881   1.000
    Zr146   Zr   0.52225   0.11732   0.59827   1.000
    Zr147   Zr   0.45011   0.18338   0.71879   1.000
    Zr148   Zr   0.11724   0.52172   0.59823   1.000
    Zr149   Zr   0.18335   0.44996   0.71884   1.000
    Zr150   Zr   0.38277   0.97824   0.59824   1.000
    Zr151   Zr   0.31661   0.05004   0.71888   1.000
    Zr152   Zr   0.97730   0.11724   0.09877   1.000
    Zr153   Zr   0.04986   0.18347   0.21896   1.000
    Zr154   Zr   0.52234   0.38283   0.09832   1.000
    Zr155   Zr   0.45022   0.31658   0.21873   1.000
    Zr156   Zr   0.88280   0.02170   0.90173   1.000
    Zr157   Zr   0.81662   0.94987   0.78115   1.000
    Zr158   Zr   0.61719   0.47831   0.90183   1.000
    Zr159   Zr   0.68332   0.55007   0.78122   1.000
    Zr160   Zr   0.02218   0.61725   0.40171   1.000
    Zr161   Zr   0.95013   0.68340   0.28123   1.000
    Zr162   Zr   0.47773   0.88266   0.40171   1.000
    Zr163   Zr   0.54991   0.81660   0.28118   1.000
    O164    O    0.76396   0.02815   0.04943   1.000
    O165    O    0.73597   0.47175   0.04953   1.000
    O166    O    0.02915   0.76445   0.04988   1.000
    O167    O    0.47085   0.73561   0.04993   1.000
    O168    O    0.86879   0.92339   0.08641   1.000
    O169    O    0.92370   0.86880   0.08650   1.000
    O170    O    0.63105   0.57653   0.08649   1.000
    O171    O    0.57617   0.63115   0.08658   1.000
    O172    O    0.54284   0.54297   0.03626   1.000
    O173    O    0.79706   0.97780   0.09302   1.000
    O174    O    0.79203   0.05303   0.09744   1.000
    O175    O    0.73697   0.02225   0.10425   1.000
    O176    O    0.70277   0.52210   0.09310   1.000
    O177    O    0.70776   0.44684   0.09745   1.000
    O178    O    0.76281   0.47761   0.10437   1.000
    O179    O    0.97850   0.79747   0.09332   1.000
    O180    O    0.05393   0.79289   0.09772   1.000
    O181    O    0.02338   0.73781   0.10483   1.000
    O182    O    0.52142   0.70253   0.09337   1.000
    O183    O    0.44601   0.70717   0.09775   1.000
    O184    O    0.47660   0.76222   0.10491   1.000
    O185    O    0.38151   0.48973   0.12752   1.000
    O186    O    0.44138   0.51090   0.04915   1.000
    O187    O    0.11839   0.01034   0.12756   1.000
    O188    O    0.49018   0.38148   0.12753   1.000
    O189    O    0.51116   0.44141   0.04916   1.000
    O190    O    0.00957   0.11857   0.12784   1.000
    O191    O    0.80558   0.89488   0.12173   1.000
    O192    O    0.69428   0.60500   0.12180   1.000
    O193    O    0.89531   0.80567   0.12189   1.000
    O194    O    0.60461   0.69427   0.12193   1.000
    O195    O    0.82254   0.82236   0.14314   1.000
    O196    O    0.72683   0.84543   0.17521   1.000
    O197    O    0.67737   0.67753   0.14319   1.000
    O198    O    0.77309   0.65447   0.17525   1.000
    O199    O    0.65426   0.77303   0.17529   1.000
    O200    O    0.84570   0.72690   0.17529   1.000
    O201    O    0.41913   0.41890   0.15674   1.000
    O202    O    0.45412   0.34836   0.18773   1.000
    O203    O    0.34844   0.45379   0.18780   1.000
    O204    O    0.08074   0.08115   0.15686   1.000
    O205    O    0.15149   0.04626   0.18784   1.000
    O206    O    0.05984   0.02118   0.17841   1.000
    O207    O    0.04585   0.15168   0.18794   1.000
    O208    O    0.02093   0.05993   0.17846   1.000
    O209    O    0.67466   0.89191   0.24422   1.000
    O210    O    0.60792   0.82525   0.24427   1.000
    O211    O    0.82534   0.60803   0.24428   1.000
    O212    O    0.89208   0.67472   0.24430   1.000
    O213    O    0.39214   0.32520   0.25566   1.000
    O214    O    0.32534   0.39187   0.25571   1.000
    O215    O    0.17464   0.10812   0.25572   1.000
    O216    O    0.10790   0.17480   0.25578   1.000
    O217    O    0.65159   0.95376   0.31218   1.000
    O218    O    0.54597   0.84835   0.31224   1.000
    O219    O    0.84842   0.54617   0.31226   1.000
    O220    O    0.95401   0.65164   0.31226   1.000
    O221    O    0.34559   0.27290   0.32455   1.000
    O222    O    0.27314   0.34543   0.32469   1.000
    O223    O    0.15439   0.22703   0.32464   1.000
    O224    O    0.22683   0.15452   0.32469   1.000
    O225    O    0.58092   0.91886   0.34328   1.000
    O226    O    0.61852   0.98968   0.37248   1.000
    O227    O    0.91904   0.58111   0.34330   1.000
    O228    O    0.99003   0.61857   0.37250   1.000
    O229    O    0.50988   0.88138   0.37251   1.000
    O230    O    0.88146   0.51029   0.37256   1.000
    O231    O    0.32242   0.17744   0.35665   1.000
    O232    O    0.39511   0.19408   0.37784   1.000
    O233    O    0.17753   0.32248   0.35674   1.000
    O234    O    0.10482   0.30583   0.37793   1.000
    O235    O    0.30556   0.10496   0.37810   1.000
    O236    O    0.19435   0.39498   0.37810   1.000
    O237    O    0.52313   0.26200   0.39470   1.000
    O238    O    0.97673   0.23794   0.39485   1.000
    O239    O    0.26287   0.52240   0.39539   1.000
    O240    O    0.23698   0.97753   0.39552   1.000
    O241    O    0.55371   0.20694   0.40187   1.000
    O242    O    0.94616   0.29299   0.40204   1.000
    O243    O    0.20782   0.55316   0.40241   1.000
    O244    O    0.29205   0.94677   0.40250   1.000
    O245    O    0.47831   0.20234   0.40633   1.000
    O246    O    0.42357   0.13099   0.41328   1.000
    O247    O    0.02156   0.29759   0.40642   1.000
    O248    O    0.07629   0.36894   0.41329   1.000
    O249    O    0.20285   0.47792   0.40676   1.000
    O250    O    0.13113   0.42354   0.41341   1.000
    O251    O    0.29702   0.02201   0.40682   1.000
    O252    O    0.36873   0.07640   0.41342   1.000
    O253    O    0.55861   0.01089   0.45087   1.000
    O254    O    0.48886   0.94135   0.45088   1.000
    O255    O    0.01108   0.55862   0.45087   1.000
    O256    O    0.94136   0.48911   0.45092   1.000
    O257    O    0.52893   0.23545   0.44970   1.000
    O258    O    0.97094   0.26449   0.44984   1.000
    O259    O    0.23609   0.52825   0.45031   1.000
    O260    O    0.26379   0.97171   0.45041   1.000
    O261    O    0.04289   0.45707   0.46371   1.000
    O262    O    0.45702   0.04291   0.46372   1.000
    O263    O    0.95708   0.54289   0.53634   1.000
    O264    O    0.05862   0.51085   0.54913   1.000
    O265    O    0.98889   0.44135   0.54919   1.000
    O266    O    0.54295   0.95714   0.53637   1.000
    O267    O    0.44138   0.98914   0.54914   1.000
    O268    O    0.51112   0.05867   0.54915   1.000
    O269    O    0.73622   0.02827   0.54963   1.000
    O270    O    0.76385   0.47174   0.54974   1.000
    O271    O    0.02895   0.73559   0.55018   1.000
    O272    O    0.47115   0.76449   0.55026   1.000
    O273    O    0.86883   0.57643   0.58663   1.000
    O274    O    0.92368   0.63102   0.58675   1.000
    O275    O    0.63125   0.92363   0.58665   1.000
    O276    O    0.57640   0.86904   0.58678   1.000
    O277    O    0.70298   0.97800   0.59323   1.000
    O278    O    0.70795   0.05325   0.59750   1.000
    O279    O    0.76301   0.02249   0.60453   1.000
    O280    O    0.79711   0.52205   0.59327   1.000
    O281    O    0.79214   0.44681   0.59760   1.000
    O282    O    0.73709   0.47758   0.60466   1.000
    O283    O    0.97840   0.70239   0.59360   1.000
    O284    O    0.05381   0.70694   0.59786   1.000
    O285    O    0.02328   0.76199   0.60526   1.000
    O286    O    0.52169   0.79767   0.59365   1.000
    O287    O    0.44627   0.79308   0.59799   1.000
    O288    O    0.47684   0.73804   0.60530   1.000
    O289    O    0.11852   0.48967   0.62748   1.000
    O290    O    0.38148   0.01031   0.62750   1.000
    O291    O    0.49009   0.11860   0.62749   1.000
    O292    O    0.00994   0.38140   0.62757   1.000
    O293    O    0.69443   0.89505   0.62193   1.000
    O294    O    0.80562   0.60500   0.62194   1.000
    O295    O    0.89516   0.69414   0.62211   1.000
    O296    O    0.60488   0.80593   0.62217   1.000
    O297    O    0.67757   0.82256   0.64336   1.000
    O298    O    0.77316   0.84548   0.67534   1.000
    O299    O    0.82244   0.67749   0.64332   1.000
    O300    O    0.72684   0.65456   0.67536   1.000
    O301    O    0.84559   0.77295   0.67541   1.000
    O302    O    0.65439   0.72710   0.67546   1.000
    O303    O    0.41907   0.08113   0.65673   1.000
    O304    O    0.45403   0.15163   0.68775   1.000
    O305    O    0.08094   0.41885   0.65676   1.000
    O306    O    0.15157   0.45379   0.68779   1.000
    O307    O    0.34840   0.04621   0.68781   1.000
    O308    O    0.04597   0.34832   0.68779   1.000
    O309    O    0.89208   0.82519   0.74426   1.000
    O310    O    0.82533   0.89186   0.74430   1.000
    O311    O    0.67462   0.60812   0.74433   1.000
    O312    O    0.60783   0.67480   0.74435   1.000
    O313    O    0.39205   0.17477   0.75570   1.000
    O314    O    0.10792   0.32522   0.75573   1.000
    O315    O    0.17466   0.39192   0.75575   1.000
    O316    O    0.32530   0.10810   0.75574   1.000
    O317    O    0.95410   0.84830   0.81213   1.000
    O318    O    0.84846   0.95373   0.81219   1.000
    O319    O    0.65151   0.54623   0.81226   1.000
    O320    O    0.54584   0.65167   0.81228   1.000
    O321    O    0.34562   0.22708   0.82464   1.000
    O322    O    0.27306   0.15464   0.82474   1.000
    O323    O    0.15432   0.27303   0.82468   1.000
    O324    O    0.22689   0.34547   0.82475   1.000
    O325    O    0.91918   0.91883   0.84320   1.000
    O326    O    0.99031   0.88138   0.87228   1.000
    O327    O    0.88155   0.98964   0.87248   1.000
    O328    O    0.58082   0.58115   0.84330   1.000
    O329    O    0.50975   0.61856   0.87247   1.000
    O330    O    0.61845   0.51035   0.87257   1.000
    O331    O    0.32252   0.32253   0.85676   1.000
    O332    O    0.39521   0.30589   0.87798   1.000
    O333    O    0.17740   0.17765   0.85679   1.000
    O334    O    0.10469   0.19432   0.87809   1.000
    O335    O    0.30560   0.39499   0.87822   1.000
    O336    O    0.19431   0.10522   0.87824   1.000
    O337    O    0.52324   0.23794   0.89497   1.000
    O338    O    0.97666   0.26232   0.89522   1.000
    O339    O    0.23687   0.52231   0.89569   1.000
    O340    O    0.26298   0.97787   0.89572   1.000
    O341    O    0.55384   0.29298   0.90209   1.000
    O342    O    0.94606   0.20726   0.90221   1.000
    O343    O    0.20794   0.94705   0.90258   1.000
    O344    O    0.29188   0.55315   0.90260   1.000
    O345    O    0.47842   0.29762   0.90651   1.000
    O346    O    0.42366   0.36899   0.91338   1.000
    O347    O    0.02147   0.20260   0.90670   1.000
    O348    O    0.07623   0.13125   0.91353   1.000
    O349    O    0.29698   0.47791   0.90696   1.000
    O350    O    0.36877   0.42356   0.91354   1.000
    O351    O    0.20288   0.02231   0.90697   1.000
    O352    O    0.13112   0.07669   0.91360   1.000
    O353    O    0.48877   0.55861   0.95083   1.000
    O354    O    0.55859   0.48915   0.95092   1.000
    O355    O    0.52902   0.26455   0.94993   1.000
    O356    O    0.97080   0.23560   0.95013   1.000
    O357    O    0.26373   0.52821   0.95053   1.000
    O358    O    0.23603   0.97198   0.95055   1.000
    O359    O    0.45705   0.45710   0.96375   1.000
    O360    O    0.05858   0.98912   0.14916   1.000
    O361    O    0.98866   0.05860   0.14939   1.000
loop_
    _geom_bond_atom_site_label_1
    _geom_bond_atom_site_label_2
    _geom_bond_distance
    _geom_bond_site_symmetry_2
    _ccdc_geom_bond_type
    Zr17   O164      0.54926      .   S
    Zr64   O164      0.54926      .   S
    Zr14   O165      0.54916      .   S
    Zr61   O165      0.54916      .   S
    Zr56   O166      0.54914      .   S
    Zr103  O166      0.54914      .   S
    Zr59   O167      0.54898      .   S
    Zr106  O167      0.54898      .   S
    Zr125  O168      0.68234      .   S
    Zr63   O168      0.68234      .   S
    Zr125  O169      0.68242      .   S
    Zr102  O169      0.68242      .   S
    Zr124  O170      0.68241      .   S
    Zr60   O170      0.68241      .   S
    Zr124  O171      0.68242      .   S
    Zr105  O171      0.68242      .   S
    Zr124  O172      1.00759      .   S
    Zr0    O172      1.00759      .   S
    Zr64   O173      0.74159  1_545   S
    Zr63   O173      0.74159      .   S
    Zr64   O174      0.54868      .   S
    Zr16   O174      0.54868      .   S
    Zr64   O175      0.54745      .   S
    Zr15   O175      0.54745      .   S
    Zr61   O176      0.74151      .   S
    Zr60   O176      0.74151      .   S
    Zr61   O177      0.54867      .   S
    Zr13   O177      0.54867      .   S
    Zr61   O178      0.54728      .   S
    Zr12   O178      0.54728      .   S
    Zr103  O179      0.74160  1_455   S
    Zr102  O179      0.74160      .   S
    Zr103  O180      0.54869      .   S
    Zr55   O180      0.54869      .   S
    Zr103  O181      0.54746      .   S
    Zr54   O181      0.54746      .   S
    Zr106  O182      0.74157      .   S
    Zr105  O182      0.74157      .   S
    Zr106  O183      0.54873      .   S
    Zr58   O183      0.54873      .   S
    Zr106  O184      0.54752      .   S
    Zr57   O184      0.54752      .   S
    Zr142  O185      0.62518      .   S
    Zr77   O185      0.62518      .   S
    Zr142  O186      1.10829      .   S
    Zr0    O186      1.10829      .   S
    Zr140  O187      0.62517  1_565   S
    Zr74   O187      0.62517      .   S
    Zr154  O188      0.62514      .   S
    Zr95   O188      0.62514      .   S
    Zr154  O189      1.11037      .   S
    Zr0    O189      1.11037      .   S
    Zr152  O190      0.62495  1_655   S
    Zr92   O190      0.62495      .   S
    Zr63   O191      0.66845      .   S
    Zr109  O191      0.66845      .   S
    Zr60   O192      0.66842      .   S
    Zr108  O192      0.66842      .   S
    Zr102  O193      0.66849      .   S
    Zr122  O193      0.66849      .   S
    Zr105  O194      0.66849      .   S
    Zr123  O194      0.66849      .   S
    Zr109  O195      0.68986      .   S
    Zr122  O195      0.68986      .   S
    Zr109  O196      0.99156      .   S
    Zr5    O196      0.99156      .   S
    Zr108  O197      0.68982      .   S
    Zr123  O197      0.68982      .   S
    Zr108  O198      0.99210      .   S
    Zr4    O198      0.99210      .   S
    Zr123  O199      0.99242      .   S
    Zr5    O199      0.99242      .   S
    Zr122  O200      0.99242      .   S
    Zr4    O200      0.99242      .   S
    Zr95   O201      0.77147      .   S
    Zr77   O201      0.77147      .   S
    Zr95   O202      0.64279      .   S
    Zr155  O202      0.64279      .   S
    Zr77   O203      0.64273      .   S
    Zr143  O203      0.64273      .   S
    Zr74   O204      0.77163      .   S
    Zr92   O204      0.77163      .   S
    Zr74   O205      0.64306      .   S
    Zr141  O205      0.64306      .   S
    Zr74   O206      0.94661      .   S
    Zr1    O206      0.94661  1_565   S
    Zr92   O207      0.64312      .   S
    Zr153  O207      0.64312      .   S
    Zr92   O208      0.94846      .   S
    Zr1    O208      0.94846  1_565   S
    Zr5    O209      0.98904      .   S
    Zr135  O209      0.98904      .   S
    Zr5    O210      0.98792      .   S
    Zr163  O210      0.98792      .   S
    Zr4    O211      0.98969      .   S
    Zr133  O211      0.98969      .   S
    Zr4    O212      0.98887      .   S
    Zr161  O212      0.98887      .   S
    Zr155  O213      0.98875      .   S
    Zr9    O213      0.98875      .   S
    Zr143  O214      0.98968      .   S
    Zr9    O214      0.98968      .   S
    Zr141  O215      0.98884      .   S
    Zr8    O215      0.98884      .   S
    Zr153  O216      0.98772      .   S
    Zr8    O216      0.98772      .   S
    Zr135  O217      0.64295      .   S
    Zr65   O217      0.64295      .   S
    Zr163  O218      0.64307      .   S
    Zr107  O218      0.64307      .   S
    Zr133  O219      0.64269      .   S
    Zr62   O219      0.64269      .   S
    Zr161  O220      0.64282      .   S
    Zr104  O220      0.64282      .   S
    Zr9    O221      0.99235      .   S
    Zr119  O221      0.99235      .   S
    Zr9    O222      0.99152      .   S
    Zr113  O222      0.99152      .   S
    Zr8    O223      0.99227      .   S
    Zr118  O223      0.99227      .   S
    Zr8    O224      0.99146      .   S
    Zr112  O224      0.99146      .   S
    Zr65   O225      0.77151      .   S
    Zr107  O225      0.77151      .   S
    Zr65   O226      0.62497      .   S
    Zr134  O226      0.62497  1_545   S
    Zr104  O227      0.77145      .   S
    Zr62   O227      0.77145      .   S
    Zr104  O228      0.62516      .   S
    Zr160  O228      0.62516  1_455   S
    Zr107  O229      0.62496      .   S
    Zr162  O229      0.62496      .   S
    Zr62   O230      0.62522      .   S
    Zr132  O230      0.62522      .   S
    Zr119  O231      0.68815      .   S
    Zr112  O231      0.68815      .   S
    Zr119  O232      0.66864      .   S
    Zr93   O232      0.66864      .   S
    Zr118  O233      0.68812      .   S
    Zr113  O233      0.68812      .   S
    Zr118  O234      0.66864      .   S
    Zr90   O234      0.66864      .   S
    Zr112  O235      0.66875      .   S
    Zr72   O235      0.66875      .   S
    Zr113  O236      0.66867      .   S
    Zr75   O236      0.66867      .   S
    Zr45   O237      0.54735      .   S
    Zr94   O237      0.54735      .   S
    Zr42   O238      0.54740      .   S
    Zr91   O238      0.54740      .   S
    Zr27   O239      0.54743      .   S
    Zr76   O239      0.54743      .   S
    Zr24   O240      0.54741      .   S
    Zr73   O240      0.54741      .   S
    Zr46   O241      0.54858      .   S
    Zr94   O241      0.54858      .   S
    Zr43   O242      0.54868      .   S
    Zr91   O242      0.54868      .   S
    Zr28   O243      0.54887      .   S
    Zr76   O243      0.54887      .   S
    Zr25   O244      0.54873      .   S
    Zr73   O244      0.54873      .   S
    Zr93   O245      0.74147      .   S
    Zr94   O245      0.74147      .   S
    Zr93   O246      0.68255      .   S
    Zr128  O246      0.68255      .   S
    Zr90   O247      0.74158      .   S
    Zr91   O247      0.74158  1_655   S
    Zr90   O248      0.68256      .   S
    Zr129  O248      0.68256      .   S
    Zr75   O249      0.74152      .   S
    Zr76   O249      0.74152      .   S
    Zr75   O250      0.68220      .   S
    Zr129  O250      0.68220      .   S
    Zr72   O251      0.74165      .   S
    Zr73   O251      0.74165  1_565   S
    Zr72   O252      0.68216      .   S
    Zr128  O252      0.68216      .   S
    Zr134  O253      1.10881      .   S
    Zr3    O253      1.10881      .   S
    Zr162  O254      1.11114      .   S
    Zr3    O254      1.11114  1_545   S
    Zr160  O255      1.11067      .   S
    Zr2    O255      1.11067  1_655   S
    Zr132  O256      1.10852      .   S
    Zr2    O256      1.10852      .   S
    Zr94   O257      0.54950      .   S
    Zr47   O257      0.54950      .   S
    Zr91   O258      0.54918      .   S
    Zr44   O258      0.54918      .   S
    Zr76   O259      0.54918      .   S
    Zr29   O259      0.54918      .   S
    Zr73   O260      0.54921      .   S
    Zr26   O260      0.54921      .   S
    Zr129  O261      1.00752      .   S
    Zr2    O261      1.00752  1_655   S
    Zr128  O262      1.00820      .   S
    Zr3    O262      1.00820      .   S
    Zr2    O263      1.00760      .   S
    Zr126  O263      1.00760      .   S
    Zr2    O264      1.10850  1_655   S
    Zr148  O264      1.10850      .   S
    Zr2    O265      1.11070      .   S
    Zr144  O265      1.11070      .   S
    Zr3    O266      1.00831  1_545   S
    Zr127  O266      1.00831      .   S
    Zr3    O267      1.10797  1_545   S
    Zr150  O267      1.10797      .   S
    Zr3    O268      1.11022      .   S
    Zr146  O268      1.11022      .   S
    Zr50   O269      0.54919      .   S
    Zr97   O269      0.54919      .   S
    Zr53   O270      0.54920      .   S
    Zr100  O270      0.54920      .   S
    Zr20   O271      0.54917      .   S
    Zr67   O271      0.54917      .   S
    Zr23   O272      0.54916      .   S
    Zr70   O272      0.54916      .   S
    Zr126  O273      0.68219      .   S
    Zr99   O273      0.68219      .   S
    Zr126  O274      0.68257      .   S
    Zr66   O274      0.68257      .   S
    Zr127  O275      0.68217      .   S
    Zr96   O275      0.68217      .   S
    Zr127  O276      0.68256      .   S
    Zr69   O276      0.68256      .   S
    Zr97   O277      0.74166  1_545   S
    Zr96   O277      0.74166      .   S
    Zr97   O278      0.54866      .   S
    Zr49   O278      0.54866      .   S
    Zr97   O279      0.54742      .   S
    Zr48   O279      0.54742      .   S
    Zr100  O280      0.74151      .   S
    Zr99   O280      0.74151      .   S
    Zr100  O281      0.54868      .   S
    Zr52   O281      0.54868      .   S
    Zr100  O282      0.54741      .   S
    Zr51   O282      0.54741      .   S
    Zr67   O283      0.74158  1_455   S
    Zr66   O283      0.74158      .   S
    Zr67   O284      0.54867      .   S
    Zr19   O284      0.54867      .   S
    Zr67   O285      0.54743      .   S
    Zr18   O285      0.54743      .   S
    Zr70   O286      0.74152      .   S
    Zr69   O286      0.74152      .   S
    Zr70   O287      0.54867      .   S
    Zr22   O287      0.54867      .   S
    Zr70   O288      0.54742      .   S
    Zr21   O288      0.54742      .   S
    Zr148  O289      0.62523      .   S
    Zr86   O289      0.62523      .   S
    Zr150  O290      0.62531  1_565   S
    Zr89   O290      0.62531      .   S
    Zr146  O291      0.62508      .   S
    Zr83   O291      0.62508      .   S
    Zr144  O292      0.62519  1_655   S
    Zr80   O292      0.62519      .   S
    Zr96   O293      0.66877      .   S
    Zr120  O293      0.66877      .   S
    Zr99   O294      0.66869      .   S
    Zr121  O294      0.66869      .   S
    Zr66   O295      0.66865      .   S
    Zr110  O295      0.66865      .   S
    Zr69   O296      0.66860      .   S
    Zr111  O296      0.66860      .   S
    Zr120  O297      0.68816      .   S
    Zr111  O297      0.68816      .   S
    Zr120  O298      0.99143      .   S
    Zr6    O298      0.99143      .   S
    Zr121  O299      0.68812      .   S
    Zr110  O299      0.68812      .   S
    Zr121  O300      0.99148      .   S
    Zr7    O300      0.99148      .   S
    Zr110  O301      0.99228      .   S
    Zr6    O301      0.99228      .   S
    Zr111  O302      0.99247      .   S
    Zr7    O302      0.99247      .   S
    Zr83   O303      0.77151      .   S
    Zr89   O303      0.77151      .   S
    Zr83   O304      0.64277      .   S
    Zr147  O304      0.64277      .   S
    Zr86   O305      0.77146      .   S
    Zr80   O305      0.77146      .   S
    Zr86   O306      0.64269      .   S
    Zr149  O306      0.64269      .   S
    Zr89   O307      0.64267      .   S
    Zr151  O307      0.64267      .   S
    Zr80   O308      0.64279      .   S
    Zr145  O308      0.64279      .   S
    Zr6    O309      0.98779      .   S
    Zr137  O309      0.98779      .   S
    Zr6    O310      0.98879      .   S
    Zr157  O310      0.98879      .   S
    Zr7    O311      0.98978      .   S
    Zr159  O311      0.98978      .   S
    Zr7    O312      0.98865      .   S
    Zr139  O312      0.98865      .   S
    Zr147  O313      0.98832      .   S
    Zr11   O313      0.98832      .   S
    Zr145  O314      0.98884      .   S
    Zr10   O314      0.98884      .   S
    Zr149  O315      0.98979      .   S
    Zr10   O315      0.98979      .   S
    Zr151  O316      0.98951      .   S
    Zr11   O316      0.98951      .   S
    Zr137  O317      0.64311      .   S
    Zr68   O317      0.64311      .   S
    Zr157  O318      0.64308      .   S
    Zr98   O318      0.64308      .   S
    Zr159  O319      0.64264      .   S
    Zr101  O319      0.64264      .   S
    Zr139  O320      0.64280      .   S
    Zr71   O320      0.64280      .   S
    Zr11   O321      0.99279      .   S
    Zr115  O321      0.99279      .   S
    Zr11   O322      0.99185      .   S
    Zr117  O322      0.99185      .   S
    Zr10   O323      0.99203      .   S
    Zr114  O323      0.99203      .   S
    Zr10   O324      0.99167      .   S
    Zr116  O324      0.99167      .   S
    Zr68   O325      0.77159      .   S
    Zr98   O325      0.77159      .   S
    Zr68   O326      0.62493      .   S
    Zr136  O326      0.62493  1_455   S
    Zr98   O327      0.62512      .   S
    Zr156  O327      0.62512  1_545   S
    Zr71   O328      0.77147      .   S
    Zr101  O328      0.77147      .   S
    Zr71   O329      0.62511      .   S
    Zr138  O329      0.62511      .   S
    Zr101  O330      0.62529      .   S
    Zr158  O330      0.62529      .   S
    Zr115  O331      0.68812      .   S
    Zr116  O331      0.68812      .   S
    Zr115  O332      0.66855      .   S
    Zr81   O332      0.66855      .   S
    Zr114  O333      0.68817      .   S
    Zr117  O333      0.68817      .   S
    Zr114  O334      0.66899      .   S
    Zr78   O334      0.66899      .   S
    Zr116  O335      0.66873      .   S
    Zr84   O335      0.66873      .   S
    Zr117  O336      0.66854      .   S
    Zr87   O336      0.66854      .   S
    Zr33   O337      0.54741      .   S
    Zr82   O337      0.54741      .   S
    Zr30   O338      0.54740      .   S
    Zr79   O338      0.54740      .   S
    Zr36   O339      0.54744      .   S
    Zr85   O339      0.54744      .   S
    Zr39   O340      0.54746      .   S
    Zr88   O340      0.54746      .   S
    Zr34   O341      0.54867      .   S
    Zr82   O341      0.54867      .   S
    Zr31   O342      0.54869      .   S
    Zr79   O342      0.54869      .   S
    Zr40   O343      0.54867      .   S
    Zr88   O343      0.54867      .   S
    Zr37   O344      0.54867      .   S
    Zr85   O344      0.54867      .   S
    Zr81   O345      0.74156      .   S
    Zr82   O345      0.74156      .   S
    Zr81   O346      0.68259      .   S
    Zr131  O346      0.68259      .   S
    Zr78   O347      0.74157      .   S
    Zr79   O347      0.74157  1_655   S
    Zr78   O348      0.68220      .   S
    Zr130  O348      0.68220      .   S
    Zr84   O349      0.74152      .   S
    Zr85   O349      0.74152      .   S
    Zr84   O350      0.68224      .   S
    Zr131  O350      0.68224      .   S
    Zr87   O351      0.74162      .   S
    Zr88   O351      0.74162  1_565   S
    Zr87   O352      0.68249      .   S
    Zr130  O352      0.68249      .   S
    Zr138  O353      1.11078      .   S
    Zr0    O353      1.11078  1_554   S
    Zr158  O354      1.10758      .   S
    Zr0    O354      1.10758  1_554   S
    Zr82   O355      0.54917      .   S
    Zr35   O355      0.54917      .   S
    Zr79   O356      0.54922      .   S
    Zr32   O356      0.54922      .   S
    Zr85   O357      0.54912      .   S
    Zr38   O357      0.54912      .   S
    Zr88   O358      0.54916      .   S
    Zr41   O358      0.54916      .   S
    Zr131  O359      1.00758      .   S
    Zr0    O359      1.00758  1_554   S
    Zr140  O360      1.12428      .   S
    Zr1    O360      1.12428      .   S
    Zr152  O361      1.12548      .   S
    Zr1    O361      1.12548  1_465   S
