# CIF file generated by openbabel 2.4.90, see http://openbabel.sf.net
data_I
_chemical_name_common ''
_cell_length_a 15.841
_cell_length_b 16.164
_cell_length_c 22.838
_cell_angle_alpha 90.009
_cell_angle_beta 89.993
_cell_angle_gamma 89.94
_space_group_name_H-M_alt 'P 1'
_space_group_name_Hall 'P 1'
loop_
    _symmetry_equiv_pos_as_xyz
    x,y,z
loop_
    _atom_site_label
    _atom_site_type_symbol
    _atom_site_fract_x
    _atom_site_fract_y
    _atom_site_fract_z
    _atom_site_occupancy
    Zn0     Zn   0.83312   0.44543   0.25261   1.000
    Zn1     Zn   0.18992   0.44090   0.74046   1.000
    Zn2     Zn   0.33330   0.55465   0.74754   1.000
    Zn3     Zn   0.68994   0.44092   0.75948   1.000
    Zn4     Zn   0.83334   0.55463   0.75240   1.000
    Zn5     Zn   0.18980   0.55907   0.24038   1.000
    Zn6     Zn   0.33337   0.44541   0.24740   1.000
    Zn7     Zn   0.68970   0.55916   0.25980   1.000
    C8      C    0.83627   0.57991   0.16946   1.000
    C9      C    0.16443   0.57697   0.81743   1.000
    C10     C    0.69204   0.41906   0.34137   1.000
    C11     C    0.35505   0.41065   0.67306   1.000
    C12     C    0.33783   0.42140   0.83120   1.000
    C13     C    0.66441   0.42291   0.18296   1.000
    C14     C    0.19191   0.58073   0.65871   1.000
    C15     C    0.85461   0.58898   0.32761   1.000
    C16     C    0.83787   0.42142   0.66871   1.000
    C17     C    0.16453   0.42276   0.31700   1.000
    C18     C    0.69192   0.58070   0.84127   1.000
    C19     C    0.35496   0.58934   0.17288   1.000
    C20     C    0.33761   0.57869   0.33095   1.000
    C21     C    0.66455   0.57710   0.68261   1.000
    C22     C    0.19203   0.41925   0.15856   1.000
    C23     C    0.85501   0.41057   0.82690   1.000
    O24     O    0.77239   0.60980   0.19588   1.000
    O25     O    0.87114   0.51030   0.17996   1.000
    O26     O    0.23279   0.60457   0.79561   1.000
    O27     O    0.12999   0.50785   0.80487   1.000
    O28     O    0.76854   0.40568   0.32739   1.000
    O29     O    0.64424   0.47529   0.32026   1.000
    O30     O    0.39635   0.46936   0.69703   1.000
    O31     O    0.27684   0.39583   0.67977   1.000
    O32     O    0.27334   0.39232   0.80518   1.000
    O33     O    0.37396   0.49013   0.81999   1.000
    O34     O    0.73267   0.39516   0.20488   1.000
    O35     O    0.63019   0.49235   0.19516   1.000
    O36     O    0.26829   0.59424   0.67280   1.000
    O37     O    0.14428   0.52437   0.67971   1.000
    O38     O    0.89620   0.53093   0.30280   1.000
    O39     O    0.77615   0.60321   0.32160   1.000
    O40     O    0.77339   0.39234   0.69477   1.000
    O41     O    0.87399   0.49016   0.67997   1.000
    O42     O    0.23308   0.39537   0.29526   1.000
    O43     O    0.12998   0.49197   0.30469   1.000
    O44     O    0.76831   0.59418   0.82717   1.000
    O45     O    0.64428   0.52435   0.82026   1.000
    O46     O    0.39636   0.53063   0.19689   1.000
    O47     O    0.27673   0.60416   0.17961   1.000
    O48     O    0.27288   0.60761   0.30503   1.000
    O49     O    0.37383   0.50988   0.31984   1.000
    O50     O    0.73293   0.60465   0.70443   1.000
    O51     O    0.63007   0.50799   0.69512   1.000
    O52     O    0.26847   0.40578   0.17261   1.000
    O53     O    0.14429   0.47560   0.17962   1.000
    O54     O    0.89634   0.46925   0.80291   1.000
    O55     O    0.77680   0.39578   0.82019   1.000
    Ts56    Ts   0.85675   0.40979   0.25073   1.000
    Ts57    Ts   0.16621   0.40530   0.73876   1.000
    Ts58    Ts   0.35680   0.59035   0.74935   1.000
    Ts59    Ts   0.66621   0.40532   0.76113   1.000
    Ts60    Ts   0.85687   0.59032   0.75064   1.000
    Ts61    Ts   0.16601   0.59466   0.23866   1.000
    Ts62    Ts   0.35695   0.40973   0.24917   1.000
    Ts63    Ts   0.66589   0.59469   0.26173   1.000
    Og64    Og   0.84930   0.59736   0.15374   1.000
    Og65    Og   0.14990   0.59509   0.83204   1.000
    Og66    Og   0.67936   0.39999   0.35626   1.000
    Og67    Og   0.37108   0.39143   0.65998   1.000
    Og68    Og   0.35063   0.40394   0.84702   1.000
    Og69    Og   0.64985   0.40471   0.16844   1.000
    Og70    Og   0.17924   0.59979   0.64380   1.000
    Og71    Og   0.87068   0.60818   0.34065   1.000
    Og72    Og   0.85068   0.40397   0.65290   1.000
    Og73    Og   0.14998   0.40451   0.33147   1.000
    Og74    Og   0.67924   0.59977   0.85618   1.000
    Og75    Og   0.37099   0.60855   0.15981   1.000
    Og76    Og   0.35048   0.59623   0.34666   1.000
    Og77    Og   0.65003   0.59525   0.66801   1.000
    Og78    Og   0.17935   0.40018   0.14364   1.000
    Og79    Og   0.87104   0.39135   0.83997   1.000
loop_
    _geom_bond_atom_site_label_1
    _geom_bond_atom_site_label_2
    _geom_bond_distance
    _geom_bond_site_symmetry_2
    _ccdc_geom_bond_type
    C22    O52       1.27121      .   S
    C22    O53       1.27719      .   S
    C8     O25       1.27583      .   S
    C8     O24       1.27291      .   S
    O52    Zn6       2.09430      .   S
    C19    O47       1.27131      .   S
    C19    O46       1.27670      .   S
    O47    Zn5       2.08700      .   S
    O53    Zn5       2.06565      .   S
    O25    Zn0       2.05341      .   S
    C13    O35       1.27668      .   S
    C13    O34       1.27280      .   S
    O35    Zn7       2.05815      .   S
    O24    Zn7       2.12585      .   S
    O46    Zn6       2.05603      .   S
    O34    Zn0       2.09373      .   S
    Zn5    O43       2.05764      .   S
    Zn5    O48       2.12837      .   S
    Zn6    O42       2.09169      .   S
    Zn6    O49       2.05792      .   S
    Zn0    O38       2.05543      .   S
    Zn0    O28       2.09231      .   S
    Zn7    O29       2.06520      .   S
    Zn7    O39       2.09211      .   S
    O42    C17       1.27304      .   S
    O38    C15       1.27825      .   S
    O43    C17       1.27632      .   S
    O48    C20       1.27263      .   S
    O49    C20       1.27637      .   S
    O29    C10       1.27696      .   S
    O39    C15       1.27117      .   S
    O28    C10       1.27143      .   S
    C14    O36       1.27108      .   S
    C14    O37       1.27706      .   S
    C16    O41       1.27638      .   S
    C16    O40       1.27264      .   S
    O36    Zn2       2.09357      .   S
    C11    O31       1.27128      .   S
    C11    O30       1.27660      .   S
    O37    Zn1       2.06559      .   S
    O31    Zn1       2.08439      .   S
    O41    Zn4       2.05782      .   S
    C21    O51       1.27643      .   S
    C21    O50       1.27318      .   S
    O40    Zn3       2.13190      .   S
    O51    Zn3       2.05771      .   S
    O30    Zn2       2.05557      .   S
    O50    Zn4       2.09331      .   S
    Zn1    O27       2.05746      .   S
    Zn1    O32       2.13218      .   S
    Zn2    O26       2.09469      .   S
    Zn2    O33       2.05906      .   S
    Zn4    O54       2.05649      .   S
    Zn4    O44       2.09374      .   S
    Zn3    O55       2.08485      .   S
    Zn3    O45       2.06539      .   S
    O26    C9        1.27327      .   S
    O54    C23       1.27672      .   S
    O27    C9        1.27646      .   S
    O32    C12       1.27228      .   S
    O33    C12       1.27624      .   S
    O55    C23       1.27130      .   S
    O45    C18       1.27698      .   S
    O44    C18       1.27127      .   S
    Zn7    Zn0       2.92563      .   S
    Zn1    Zn2       2.92816      .   S
    Zn3    Zn4       2.92815      .   S
    Zn5    Zn6       2.92661      .   S
    Zn0    Ts56      0.68798      .   S
    Zn1    Ts57      0.68872      .   S
    Zn2    Ts58      0.68828      .   S
    Zn3    Ts59      0.68868      .   S
    Zn4    Ts60      0.68835      .   S
    Zn5    Ts61      0.68847      .   S
    Zn6    Ts62      0.68798      .   S
    Zn7    Ts63      0.68823      .   S
    C8     Og64      0.50115      .   S
    C9     Og65      0.49996      .   S
    C10    Og66      0.50112      .   S
    C11    Og67      0.49999      .   S
    C12    Og68      0.50126      .   S
    C13    Og69      0.49987      .   S
    C14    Og70      0.50111      .   S
    C15    Og71      0.50007      .   S
    C16    Og72      0.50101      .   S
    C17    Og73      0.49938      .   S
    C18    Og74      0.50110      .   S
    C19    Og75      0.50014      .   S
    C20    Og76      0.50073      .   S
    C21    Og77      0.49992      .   S
    C22    Og78      0.50161      .   S
    C23    Og79      0.50001      .   S
