# CIF file generated by openbabel 2.4.90, see http://openbabel.sf.net
data_I
_chemical_name_common ''
_cell_length_a 13.585
_cell_length_b 14.447
_cell_length_c 14.451
_cell_angle_alpha 69.286
_cell_angle_beta 71.796
_cell_angle_gamma 108.206
_space_group_name_H-M_alt 'P 1'
_space_group_name_Hall 'P 1'
loop_
    _symmetry_equiv_pos_as_xyz
    x,y,z
loop_
    _atom_site_label
    _atom_site_type_symbol
    _atom_site_fract_x
    _atom_site_fract_y
    _atom_site_fract_z
    _atom_site_occupancy
    P0      P    0.06470   0.94639   0.39589   1.000
    P1      P    0.06507   0.35410   0.33296   1.000
    P2      P    0.46161   0.39604   0.65772   1.000
    P3      P    0.39786   0.33276   0.31304   1.000
    P4      P    0.11887   0.65771   0.94600   1.000
    P5      P    0.71115   0.31327   0.35405   1.000
    P6      P    0.93530   0.05364   0.60411   1.000
    P7      P    0.93493   0.64593   0.66700   1.000
    P8      P    0.53838   0.60399   0.34228   1.000
    P9      P    0.60214   0.66728   0.68697   1.000
    P10     P    0.88112   0.34233   0.05400   1.000
    P11     P    0.28885   0.68676   0.64595   1.000
    H12     H    0.31731   0.83855   0.39441   1.000
    H13     H    0.23722   0.89393   0.34694   1.000
    H14     H    0.30407   0.08575   0.45657   1.000
    H15     H    0.10060   0.80236   0.75930   1.000
    H16     H    0.03802   0.87288   0.70306   1.000
    H17     H    0.46948   0.02073   0.25686   1.000
    H18     H    0.36631   0.07240   0.28273   1.000
    H19     H    0.38462   0.10076   0.58030   1.000
    H20     H    0.35333   0.95669   0.62960   1.000
    H21     H    0.50298   0.12635   0.36040   1.000
    H22     H    0.45692   0.98053   0.44528   1.000
    H23     H    0.19292   0.96341   0.76228   1.000
    H24     H    0.17195   0.04238   0.64988   1.000
    H25     H    0.71298   0.39415   0.76714   1.000
    H26     H    0.58530   0.34691   0.75955   1.000
    H27     H    0.76037   0.45645   0.45810   1.000
    H28     H    0.85991   0.75948   0.43836   1.000
    H29     H    0.74085   0.70330   0.42466   1.000
    H30     H    0.72730   0.25651   0.72236   1.000
    H31     H    0.64957   0.28259   0.64526   1.000
    H32     H    0.96426   0.58005   0.31886   1.000
    H33     H    0.98265   0.62934   0.41350   1.000
    H34     H    0.86356   0.36007   0.51309   1.000
    H35     H    0.90264   0.44488   0.57390   1.000
    H36     H    0.95437   0.76218   0.27438   1.000
    H37     H    0.82097   0.64991   0.30821   1.000
    H38     H    0.47890   0.76713   0.83880   1.000
    H39     H    0.34349   0.75914   0.89384   1.000
    H40     H    0.21855   0.45778   0.08565   1.000
    H41     H    0.29935   0.43827   0.80231   1.000
    H42     H    0.16653   0.42455   0.87167   1.000
    H43     H    0.44880   0.72228   0.02118   1.000
    H44     H    0.29418   0.64497   0.07238   1.000
    H45     H    0.28366   0.31860   0.10146   1.000
    H46     H    0.39654   0.41323   0.95760   1.000
    H47     H    0.37658   0.51297   0.12690   1.000
    H48     H    0.47629   0.57385   0.98135   1.000
    H49     H    0.22944   0.27399   0.96395   1.000
    H50     H    0.12994   0.30824   0.04190   1.000
    H51     H    0.68268   0.16148   0.60559   1.000
    H52     H    0.76277   0.10610   0.65306   1.000
    H53     H    0.69592   0.91428   0.54343   1.000
    H54     H    0.89940   0.19767   0.24066   1.000
    H55     H    0.96197   0.12716   0.29694   1.000
    H56     H    0.53052   0.97930   0.74315   1.000
    H57     H    0.63369   0.92763   0.71720   1.000
    H58     H    0.61538   0.89927   0.41969   1.000
    H59     H    0.64667   0.04335   0.37040   1.000
    H60     H    0.49701   0.87369   0.63956   1.000
    H61     H    0.54307   0.01951   0.55472   1.000
    H62     H    0.80707   0.03662   0.23772   1.000
    H63     H    0.82805   0.95766   0.35013   1.000
    H64     H    0.28701   0.60588   0.23287   1.000
    H65     H    0.41469   0.65312   0.24045   1.000
    H66     H    0.23962   0.54358   0.54191   1.000
    H67     H    0.14009   0.24056   0.56164   1.000
    H68     H    0.25914   0.29673   0.57534   1.000
    H69     H    0.27269   0.74353   0.27764   1.000
    H70     H    0.35043   0.71744   0.35474   1.000
    H71     H    0.03574   0.41998   0.68114   1.000
    H72     H    0.01734   0.37069   0.58650   1.000
    H73     H    0.13644   0.63996   0.48691   1.000
    H74     H    0.09735   0.55515   0.42610   1.000
    H75     H    0.04562   0.23785   0.72562   1.000
    H76     H    0.17903   0.35013   0.69179   1.000
    H77     H    0.52109   0.23290   0.16115   1.000
    H78     H    0.65650   0.24089   0.10616   1.000
    H79     H    0.78144   0.54225   0.91436   1.000
    H80     H    0.70065   0.56176   0.19770   1.000
    H81     H    0.83346   0.57549   0.12833   1.000
    H82     H    0.55119   0.27775   0.97882   1.000
    H83     H    0.70581   0.35506   0.92763   1.000
    H84     H    0.71633   0.68144   0.89854   1.000
    H85     H    0.60345   0.58680   0.04240   1.000
    H86     H    0.62342   0.48706   0.87302   1.000
    H87     H    0.52370   0.42618   0.01865   1.000
    H88     H    0.77055   0.72605   0.03606   1.000
    H89     H    0.87006   0.69180   0.95804   1.000
    C90     C    0.39429   0.01288   0.32288   1.000
    C91     C    0.43000   0.04027   0.40440   1.000
    C92     C    0.32513   0.01851   0.59628   1.000
    C93     C    0.19875   0.97834   0.68036   1.000
    C94     C    0.71789   0.32265   0.66435   1.000
    C95     C    0.83472   0.40411   0.55523   1.000
    C96     C    0.92099   0.59607   0.38519   1.000
    C97     C    0.87849   0.68031   0.34154   1.000
    C98     C    0.38155   0.66417   0.01316   1.000
    C99     C    0.38973   0.55510   0.04081   1.000
    C100    C    0.30661   0.38494   0.01905   1.000
    C101    C    0.22070   0.34131   0.97842   1.000
    C102    C    0.60570   0.98715   0.67712   1.000
    C103    C    0.57000   0.95976   0.59558   1.000
    C104    C    0.67487   0.98153   0.40372   1.000
    C105    C    0.80124   0.02170   0.31964   1.000
    C106    C    0.28210   0.67738   0.33565   1.000
    C107    C    0.16528   0.59592   0.44477   1.000
    C108    C    0.07901   0.40396   0.61482   1.000
    C109    C    0.12150   0.31972   0.65840   1.000
    C110    C    0.61844   0.33586   0.98680   1.000
    C111    C    0.61027   0.44494   0.95919   1.000
    C112    C    0.69339   0.61509   0.98095   1.000
    C113    C    0.77930   0.65872   0.02158   1.000
    N114    N    0.29148   0.89918   0.38480   1.000
    N115    N    0.32434   0.02362   0.49276   1.000
    N116    N    0.11711   0.87347   0.69129   1.000
    N117    N    0.67729   0.38468   0.71629   1.000
    N118    N    0.81707   0.49258   0.48376   1.000
    N119    N    0.80825   0.69141   0.43555   1.000
    N120    N    0.39257   0.71607   0.89927   1.000
    N121    N    0.30087   0.48353   0.02387   1.000
    N122    N    0.24459   0.43539   0.87309   1.000
    N123    N    0.70851   0.10086   0.61520   1.000
    N124    N    0.67566   0.97642   0.50724   1.000
    N125    N    0.88289   0.12657   0.30871   1.000
    N126    N    0.32271   0.61536   0.28371   1.000
    N127    N    0.18293   0.50745   0.51624   1.000
    N128    N    0.19174   0.30863   0.56445   1.000
    N129    N    0.60742   0.28397   0.10073   1.000
    N130    N    0.69913   0.51650   0.97613   1.000
    N131    N    0.75540   0.56465   0.12691   1.000
    O132    O    0.11391   0.90282   0.32296   1.000
    O133    O    0.43821   0.32302   0.77418   1.000
    O134    O    0.21164   0.77419   0.90246   1.000
    O135    O    0.88608   0.09721   0.67704   1.000
    O136    O    0.56179   0.67701   0.22583   1.000
    O137    O    0.78836   0.22584   0.09754   1.000
loop_
    _geom_bond_atom_site_label_1
    _geom_bond_atom_site_label_2
    _geom_bond_distance
    _geom_bond_site_symmetry_2
    _ccdc_geom_bond_type
    C98    H43       1.09935      .   S
    C98    C99       1.53196      .   S
    C98    H44       1.09992      .   S
    C98    N120      1.48198  1_554   S
    H87    C111      1.09523  1_554   S
    C100   N121      1.47502      .   S
    C100   H45       1.09912      .   S
    C100   H46       1.09622  1_554   S
    C100   C101      1.52787  1_554   S
    C113   H88       1.09757      .   S
    C113   N131      1.49048      .   S
    C113   H89       1.09806  1_554   S
    C113   C112      1.52787  1_554   S
    N121   C99       1.47309      .   S
    N121   H40       1.03307      .   S
    C99    H47       1.09892      .   S
    C99    H48       1.09523  1_554   S
    H50    C101      1.09777  1_554   S
    H85    C112      1.09621  1_554   S
    P10    O137      1.49879      .   S
    N129   H78       1.04658      .   S
    N129   H77       1.02270      .   S
    N129   C110      1.48250  1_554   S
    N131   H81       1.03035      .   S
    N131   H80       1.03761      .   S
    O136   P8        1.49869      .   S
    H64    N126      1.02272      .   S
    H62    C105      1.09744      .   S
    H65    N126      1.04624      .   S
    H54    N125      1.03743      .   S
    H17    C90       1.09936      .   S
    H36    C97       1.09751      .   S
    H69    C106      1.09944      .   S
    H18    C90       1.09991      .   S
    N126   C106      1.48213      .   S
    H55    N125      1.03072      .   S
    H37    C97       1.09818      .   S
    N125   C105      1.49057      .   S
    H32    C96       1.09906      .   S
    C105   H63       1.09780  1_545   S
    C105   C104      1.52830  1_545   S
    C90    N114      1.48172  1_545   S
    C90    C91       1.53185      .   S
    O132   P0        1.49860      .   S
    C106   H70       1.09993      .   S
    C106   C107      1.53192      .   S
    C97    C96       1.52830      .   S
    C97    N119      1.49045      .   S
    H13    N114      1.04633      .   S
    H21    C91       1.10000      .   S
    H59    C104      1.09595  1_545   S
    N114   H12       1.02272      .   S
    C96    H33       1.09624      .   S
    C96    N118      1.47495      .   S
    C104   H58       1.09906      .   S
    C104   N124      1.47508      .   S
    C91    H22       1.09515  1_545   S
    C91    N115      1.47322      .   S
    H29    N119      1.03050      .   S
    H74    C107      1.09527      .   S
    N119   H28       1.03731      .   S
    C107   H73       1.10004      .   S
    C107   N127      1.47314      .   S
    H14    N115      1.03317      .   S
    H27    N118      1.03309      .   S
    N118   C95       1.47314      .   S
    N115   C92       1.47508      .   S
    N124   H53       1.03317      .   S
    N124   C103      1.47308      .   S
    H34    C95       1.10004      .   S
    N127   H66       1.03320      .   S
    N127   C108      1.47499      .   S
    H61    C103      1.09503  1_545   S
    C95    H35       1.09527      .   S
    C95    C94       1.53192      .   S
    H67    N128      1.03731      .   S
    N128   H68       1.03051      .   S
    N128   C109      1.48980      .   S
    H19    C92       1.09901      .   S
    H72    C108      1.09635      .   S
    C103   H60       1.10003      .   S
    C103   C102      1.53212      .   S
    C92    H20       1.09596  1_545   S
    C92    C93       1.52830  1_545   S
    P6     O135      1.49860      .   S
    H51    N123      1.02270      .   S
    C108   C109      1.52805      .   S
    C108   H71       1.09895      .   S
    N123   H52       1.04633      .   S
    N123   C102      1.48173  1_545   S
    H31    C94       1.09992      .   S
    H24    C93       1.09777  1_545   S
    P2     O133      1.49881      .   S
    C109   H76       1.09888      .   S
    C109   H75       1.09769      .   S
    C94    N117      1.48212      .   S
    C94    H30       1.09943      .   S
    C102   H57       1.09955      .   S
    C102   H56       1.09943      .   S
    C93    N116      1.49057      .   S
    C93    H23       1.09744      .   S
    N116   H16       1.03072      .   S
    N116   H15       1.03712      .   S
    N117   H26       1.04625      .   S
    N117   H25       1.02285      .   S
    H41    N122      1.03749      .   S
    H38    N120      1.02287      .   S
    H42    N122      1.03036      .   S
    H86    C111      1.09995      .   S
    N122   C101      1.49047      .   S
    H39    N120      1.04658      .   S
    H84    C112      1.09912      .   S
    O134   P4        1.49879      .   S
    H79    N130      1.03301      .   S
    H83    C110      1.09967      .   S
    C111   N130      1.47309      .   S
    C111   C110      1.53201      .   S
    H49    C101      1.09750      .   S
    N130   C112      1.47502      .   S
    H82    C110      1.09898      .   S
