# CIF file generated by openbabel 2.4.90, see http://openbabel.sf.net
data_I
_chemical_name_common ''
_cell_length_a 13.585
_cell_length_b 14.447
_cell_length_c 14.451
_cell_angle_alpha 69.286
_cell_angle_beta 71.796
_cell_angle_gamma 108.206
_space_group_name_H-M_alt 'P 1'
_space_group_name_Hall 'P 1'
loop_
    _symmetry_equiv_pos_as_xyz
    x,y,z
loop_
    _atom_site_label
    _atom_site_type_symbol
    _atom_site_fract_x
    _atom_site_fract_y
    _atom_site_fract_z
    _atom_site_occupancy
    Ga0     Ga   0.18666   0.86710   0.54522   1.000
    Ga1     Ga   0.52195   0.37718   0.45341   1.000
    Ga2     Ga   0.73232   0.54519   0.58803   1.000
    Ga3     Ga   0.97520   0.45360   0.16950   1.000
    Ga4     Ga   0.32010   0.58784   0.86694   1.000
    Ga5     Ga   0.85524   0.83079   0.62280   1.000
    Ga6     Ga   0.81334   0.13293   0.45478   1.000
    Ga7     Ga   0.47804   0.62285   0.54659   1.000
    Ga8     Ga   0.26768   0.45484   0.41197   1.000
    Ga9     Ga   0.02479   0.54644   0.83050   1.000
    Ga10    Ga   0.67990   0.41219   0.13306   1.000
    Ga11    Ga   0.14475   0.16924   0.37718   1.000
