# CIF file generated by openbabel 2.4.90, see http://openbabel.sf.net
data_I
_chemical_name_common ''
_cell_length_a 13.585
_cell_length_b 14.447
_cell_length_c 14.451
_cell_angle_alpha 69.286
_cell_angle_beta 71.796
_cell_angle_gamma 108.206
_space_group_name_H-M_alt 'P 1'
_space_group_name_Hall 'P 1'
loop_
    _symmetry_equiv_pos_as_xyz
    x,y,z
loop_
    _atom_site_label
    _atom_site_type_symbol
    _atom_site_fract_x
    _atom_site_fract_y
    _atom_site_fract_z
    _atom_site_occupancy
    N0      N    0.44991   0.35953   0.71595   1.000
    N1      N    0.91069   0.07543   0.64058   1.000
    N2      N    0.28885   0.68676   0.64595   1.000
    N3      N    0.06507   0.35410   0.33296   1.000
    N4      N    0.16525   0.71595   0.92423   1.000
    N5      N    0.39786   0.33276   0.31304   1.000
    N6      N    0.93493   0.64593   0.66700   1.000
    N7      N    0.08931   0.92461   0.35942   1.000
    N8      N    0.55008   0.64050   0.28406   1.000
    N9      N    0.83474   0.28408   0.07577   1.000
    N10     N    0.60214   0.66728   0.68697   1.000
    N11     N    0.71115   0.31327   0.35405   1.000
    Zr12    Zr   0.67990   0.41219   0.13306   1.000
    O13     O    0.73962   0.41970   0.10168   1.000
    O14     O    0.61683   0.40396   0.15944   1.000
    O15     O    0.66885   0.37347   0.18833   1.000
    Zr16    Zr   0.26768   0.45484   0.41197   1.000
    O17     O    0.29539   0.43833   0.37327   1.000
    O18     O    0.21278   0.43649   0.40404   1.000
    O19     O    0.31986   0.47879   0.41952   1.000
    Zr20    Zr   0.52195   0.37718   0.45341   1.000
    O21     O    0.48179   0.34568   0.44098   1.000
    O22     O    0.56486   0.35888   0.45266   1.000
    O23     O    0.48267   0.35782   0.50918   1.000
    O24     O    0.55304   0.43436   0.41134   1.000
    Zr25    Zr   0.18666   0.86710   0.54522   1.000
    O26     O    0.15850   0.89869   0.52110   1.000
    O27     O    0.14253   0.81188   0.56170   1.000
    O28     O    0.22317   0.84055   0.56354   1.000
    Zr29    Zr   0.14475   0.16924   0.37718   1.000
    O30     O    0.11890   0.15416   0.43435   1.000
    O31     O    0.20590   0.18834   0.35887   1.000
    O32     O    0.12449   0.13298   0.35774   1.000
    O33     O    0.13612   0.21330   0.34568   1.000
    Zr34    Zr   0.47804   0.62285   0.54659   1.000
    O35     O    0.51821   0.65436   0.55901   1.000
    O36     O    0.51732   0.64222   0.49082   1.000
    O37     O    0.43513   0.64115   0.54734   1.000
    O38     O    0.44695   0.56568   0.58866   1.000
    Zr39    Zr   0.32010   0.58784   0.86694   1.000
    O40     O    0.26037   0.58033   0.89832   1.000
    O41     O    0.33114   0.62656   0.81167   1.000
    O42     O    0.38317   0.59607   0.84055   1.000
    Zr43    Zr   0.85524   0.83079   0.62280   1.000
    O44     O    0.88109   0.84587   0.56564   1.000
    O45     O    0.79409   0.81170   0.64111   1.000
    O46     O    0.86387   0.78674   0.65431   1.000
    O47     O    0.87551   0.86705   0.64225   1.000
    Zr48    Zr   0.02479   0.54644   0.83050   1.000
    O49     O    0.98271   0.54716   0.81135   1.000
    O50     O    0.03555   0.58855   0.84554   1.000
    O51     O    0.07739   0.55880   0.78669   1.000
    O52     O    0.00833   0.49066   0.86707   1.000
    Zr53    Zr   0.73232   0.54519   0.58803   1.000
    O54     O    0.78722   0.56354   0.59596   1.000
    O55     O    0.68013   0.52124   0.58048   1.000
    O56     O    0.70460   0.56170   0.62672   1.000
    Zr57    Zr   0.97520   0.45360   0.16950   1.000
    O58     O    0.96445   0.41148   0.15446   1.000
    O59     O    0.01728   0.45287   0.18865   1.000
    O60     O    0.99166   0.50937   0.13293   1.000
    O61     O    0.92261   0.44123   0.21331   1.000
    Zr62    Zr   0.81334   0.13293   0.45478   1.000
    O63     O    0.77682   0.15948   0.43646   1.000
    O64     O    0.84149   0.10134   0.47891   1.000
    O65     O    0.85746   0.18815   0.43830   1.000
loop_
    _geom_bond_atom_site_label_1
    _geom_bond_atom_site_label_2
    _geom_bond_distance
    _geom_bond_site_symmetry_2
    _ccdc_geom_bond_type
    Zr12   O13       0.74566      .   S
    N9     O13       2.72899      .   S
    Zr12   O14       0.77057      .   S
    N5     O14       2.67979      .   S
    Zr12   O15       0.72799      .   S
    N11    O15       2.55349      .   S
    Zr16   O17       0.72830      .   S
    N5     O17       2.55540      .   S
    Zr16   O18       0.76876      .   S
    N3     O18       2.67561      .   S
    Zr16   O19       0.74564      .   S
    N8     O19       2.72859      .   S
    Zr20   O21       0.70783      .   S
    N5     O21       2.48624      .   S
    Zr20   O22       0.71008      .   S
    N11    O22       2.47537      .   S
    Zr20   O23       0.70080      .   S
    N0     O23       2.89054      .   S
    Zr20   O24       0.70474      .   S
    N8     O24       2.91548      .   S
    Zr25   O26       0.74557      .   S
    N7     O26       2.73049      .   S
    Zr25   O27       0.72805      .   S
    N6     O27       2.55542  1_655   S
    Zr25   O28       0.76972      .   S
    N2     O28       2.67976      .   S
    Zr29   O30       0.70488      .   S
    N1     O30       2.91561  1_655   S
    Zr29   O31       0.70996      .   S
    N5     O31       2.47698      .   S
    Zr29   O32       0.70110      .   S
    N7     O32       2.88667  1_565   S
    Zr29   O33       0.70789      .   S
    N3     O33       2.48534      .   S
    Zr34   O35       0.70767      .   S
    N10    O35       2.48657      .   S
    Zr34   O36       0.70075      .   S
    N8     O36       2.89053      .   S
    Zr34   O37       0.71007      .   S
    N2     O37       2.47537      .   S
    Zr34   O38       0.70474      .   S
    N0     O38       2.91550      .   S
    Zr39   O40       0.74566      .   S
    N4     O40       2.72899      .   S
    Zr39   O41       0.72795      .   S
    N2     O41       2.55353      .   S
    Zr39   O42       0.77059      .   S
    N10    O42       2.67968      .   S
    Zr43   O44       0.70478      .   S
    N7     O44       2.91550  1_455   S
    Zr43   O45       0.70995      .   S
    N10    O45       2.47686      .   S
    Zr43   O46       0.70793      .   S
    N6     O46       2.48537      .   S
    Zr43   O47       0.70119      .   S
    N1     O47       2.88674  1_545   S
    Zr48   O49       0.70989  1_455   S
    N6     O49       2.47557      .   S
    Zr48   O50       0.70474      .   S
    N4     O50       2.91400      .   S
    Zr48   O51       0.70773      .   S
    N2     O51       2.48552      .   S
    Zr48   O52       0.70062      .   S
    N9     O52       2.89054  1_654   S
    Zr53   O54       0.76876      .   S
    N6     O54       2.67516      .   S
    Zr53   O55       0.74564      .   S
    N0     O55       2.72860      .   S
    Zr53   O56       0.72819      .   S
    N10    O56       2.55552      .   S
    Zr57   O58       0.70470      .   S
    N9     O58       2.91405      .   S
    Zr57   O59       0.70992  1_655   S
    N3     O59       2.47511      .   S
    Zr57   O60       0.70062      .   S
    N4     O60       2.89054  1_456   S
    Zr57   O61       0.70773      .   S
    N11    O61       2.48552      .   S
    Zr62   O63       0.76970      .   S
    N11    O63       2.67978      .   S
    Zr62   O64       0.74559      .   S
    N1     O64       2.73044      .   S
    Zr62   O65       0.72805      .   S
    N3     O65       2.55537  1_455   S
