# CIF file generated by openbabel 2.4.90, see http://openbabel.sf.net
data_I
_chemical_name_common ''
_cell_length_a 13.585
_cell_length_b 14.447
_cell_length_c 14.451
_cell_angle_alpha 69.286
_cell_angle_beta 71.796
_cell_angle_gamma 108.206
_space_group_name_H-M_alt 'P 1'
_space_group_name_Hall 'P 1'
loop_
    _symmetry_equiv_pos_as_xyz
    x,y,z
loop_
    _atom_site_label
    _atom_site_type_symbol
    _atom_site_fract_x
    _atom_site_fract_y
    _atom_site_fract_z
    _atom_site_occupancy
    C0      C    0.14475   0.16924   0.37718   1.000
    C1      C    0.18666   0.86710   0.54522   1.000
    C2      C    0.52195   0.37718   0.45341   1.000
    C3      C    0.73232   0.54519   0.58803   1.000
    C4      C    0.97520   0.45360   0.16950   1.000
    C5      C    0.32010   0.58784   0.86694   1.000
    C6      C    0.85524   0.83079   0.62280   1.000
    C7      C    0.81334   0.13293   0.45478   1.000
    C8      C    0.47804   0.62285   0.54659   1.000
    C9      C    0.26768   0.45484   0.41197   1.000
    C10     C    0.02479   0.54644   0.83050   1.000
    C11     C    0.67990   0.41219   0.13306   1.000
    C12     C    0.06470   0.94639   0.39589   1.000
    C13     C    0.06507   0.35410   0.33296   1.000
    C14     C    0.46161   0.39604   0.65772   1.000
    C15     C    0.39786   0.33276   0.31304   1.000
    C16     C    0.11887   0.65771   0.94600   1.000
    C17     C    0.71115   0.31327   0.35405   1.000
    C18     C    0.93530   0.05364   0.60411   1.000
    C19     C    0.93493   0.64593   0.66700   1.000
    C20     C    0.53838   0.60399   0.34228   1.000
    C21     C    0.60214   0.66728   0.68697   1.000
    C22     C    0.88112   0.34233   0.05400   1.000
    C23     C    0.28885   0.68676   0.64595   1.000
    C24     C    0.31731   0.83855   0.39441   1.000
    C25     C    0.23722   0.89393   0.34694   1.000
    C26     C    0.30407   0.08575   0.45657   1.000
    C27     C    0.10060   0.80236   0.75930   1.000
    C28     C    0.03802   0.87288   0.70306   1.000
    C29     C    0.46948   0.02073   0.25686   1.000
    C30     C    0.36631   0.07240   0.28273   1.000
    C31     C    0.38462   0.10076   0.58030   1.000
    C32     C    0.35333   0.95669   0.62960   1.000
    C33     C    0.50298   0.12635   0.36040   1.000
    C34     C    0.45692   0.98053   0.44528   1.000
    C35     C    0.19292   0.96341   0.76228   1.000
    C36     C    0.17195   0.04238   0.64988   1.000
    C37     C    0.71298   0.39415   0.76714   1.000
    C38     C    0.58530   0.34691   0.75955   1.000
    C39     C    0.76037   0.45645   0.45810   1.000
    C40     C    0.85991   0.75948   0.43836   1.000
    C41     C    0.74085   0.70330   0.42466   1.000
    C42     C    0.72730   0.25651   0.72236   1.000
    C43     C    0.64957   0.28259   0.64526   1.000
    C44     C    0.96426   0.58005   0.31886   1.000
    C45     C    0.98265   0.62934   0.41350   1.000
    C46     C    0.86356   0.36007   0.51309   1.000
    C47     C    0.90264   0.44488   0.57390   1.000
    C48     C    0.95437   0.76218   0.27438   1.000
    C49     C    0.82097   0.64991   0.30821   1.000
    C50     C    0.47890   0.76713   0.83880   1.000
    C51     C    0.34349   0.75914   0.89384   1.000
    C52     C    0.21855   0.45778   0.08565   1.000
    C53     C    0.29935   0.43827   0.80231   1.000
    C54     C    0.16653   0.42455   0.87167   1.000
    C55     C    0.44880   0.72228   0.02118   1.000
    C56     C    0.29418   0.64497   0.07238   1.000
    C57     C    0.28366   0.31860   0.10146   1.000
    C58     C    0.39654   0.41323   0.95760   1.000
    C59     C    0.37658   0.51297   0.12690   1.000
    C60     C    0.47629   0.57385   0.98135   1.000
    C61     C    0.22944   0.27399   0.96395   1.000
    C62     C    0.12994   0.30824   0.04190   1.000
    C63     C    0.68268   0.16148   0.60559   1.000
    C64     C    0.76277   0.10610   0.65306   1.000
    C65     C    0.69592   0.91428   0.54343   1.000
    C66     C    0.89940   0.19767   0.24066   1.000
    C67     C    0.96197   0.12716   0.29694   1.000
    C68     C    0.53052   0.97930   0.74315   1.000
    C69     C    0.63369   0.92763   0.71720   1.000
    C70     C    0.61538   0.89927   0.41969   1.000
    C71     C    0.64667   0.04335   0.37040   1.000
    C72     C    0.49701   0.87369   0.63956   1.000
    C73     C    0.54307   0.01951   0.55472   1.000
    C74     C    0.80707   0.03662   0.23772   1.000
    C75     C    0.82805   0.95766   0.35013   1.000
    C76     C    0.28701   0.60588   0.23287   1.000
    C77     C    0.41469   0.65312   0.24045   1.000
    C78     C    0.23962   0.54358   0.54191   1.000
    C79     C    0.14009   0.24056   0.56164   1.000
    C80     C    0.25914   0.29673   0.57534   1.000
    C81     C    0.27269   0.74353   0.27764   1.000
    C82     C    0.35043   0.71744   0.35474   1.000
    C83     C    0.03574   0.41998   0.68114   1.000
    C84     C    0.01734   0.37069   0.58650   1.000
    C85     C    0.13644   0.63996   0.48691   1.000
    C86     C    0.09735   0.55515   0.42610   1.000
    C87     C    0.04562   0.23785   0.72562   1.000
    C88     C    0.17903   0.35013   0.69179   1.000
    C89     C    0.52109   0.23290   0.16115   1.000
    C90     C    0.65650   0.24089   0.10616   1.000
    C91     C    0.78144   0.54225   0.91436   1.000
    C92     C    0.70065   0.56176   0.19770   1.000
    C93     C    0.83346   0.57549   0.12833   1.000
    C94     C    0.55119   0.27775   0.97882   1.000
    C95     C    0.70581   0.35506   0.92763   1.000
    C96     C    0.71633   0.68144   0.89854   1.000
    C97     C    0.60345   0.58680   0.04240   1.000
    C98     C    0.62342   0.48706   0.87302   1.000
    C99     C    0.52370   0.42618   0.01865   1.000
    C100    C    0.77055   0.72605   0.03606   1.000
    C101    C    0.87006   0.69180   0.95804   1.000
    C102    C    0.39429   0.01288   0.32288   1.000
    C103    C    0.43000   0.04027   0.40440   1.000
    C104    C    0.32513   0.01851   0.59628   1.000
    C105    C    0.19875   0.97834   0.68036   1.000
    C106    C    0.71789   0.32265   0.66435   1.000
    C107    C    0.83472   0.40411   0.55523   1.000
    C108    C    0.92099   0.59607   0.38519   1.000
    C109    C    0.87849   0.68031   0.34154   1.000
    C110    C    0.38155   0.66417   0.01316   1.000
    C111    C    0.38973   0.55510   0.04081   1.000
    C112    C    0.30661   0.38494   0.01905   1.000
    C113    C    0.22070   0.34131   0.97842   1.000
    C114    C    0.60570   0.98715   0.67712   1.000
    C115    C    0.57000   0.95976   0.59558   1.000
    C116    C    0.67487   0.98153   0.40372   1.000
    C117    C    0.80124   0.02170   0.31964   1.000
    C118    C    0.28210   0.67738   0.33565   1.000
    C119    C    0.16528   0.59592   0.44477   1.000
    C120    C    0.07901   0.40396   0.61482   1.000
    C121    C    0.12150   0.31972   0.65840   1.000
    C122    C    0.61844   0.33586   0.98680   1.000
    C123    C    0.61027   0.44494   0.95919   1.000
    C124    C    0.69339   0.61509   0.98095   1.000
    C125    C    0.77930   0.65872   0.02158   1.000
    C126    C    0.29148   0.89918   0.38480   1.000
    C127    C    0.32434   0.02362   0.49276   1.000
    C128    C    0.11711   0.87347   0.69129   1.000
    C129    C    0.67729   0.38468   0.71629   1.000
    C130    C    0.81707   0.49258   0.48376   1.000
    C131    C    0.80825   0.69141   0.43555   1.000
    C132    C    0.39257   0.71607   0.89927   1.000
    C133    C    0.30087   0.48353   0.02387   1.000
    C134    C    0.24459   0.43539   0.87309   1.000
    C135    C    0.70851   0.10086   0.61520   1.000
    C136    C    0.67566   0.97642   0.50724   1.000
    C137    C    0.88289   0.12657   0.30871   1.000
    C138    C    0.32271   0.61536   0.28371   1.000
    C139    C    0.18293   0.50745   0.51624   1.000
    C140    C    0.19174   0.30863   0.56445   1.000
    C141    C    0.60742   0.28397   0.10073   1.000
    C142    C    0.69913   0.51650   0.97613   1.000
    C143    C    0.75540   0.56465   0.12691   1.000
    C144    C    0.11158   0.95133   0.48089   1.000
    C145    C    0.09071   0.07254   0.32533   1.000
    C146    C    0.92419   0.87100   0.47038   1.000
    C147    C    0.11391   0.90282   0.32296   1.000
    C148    C    0.12174   0.28672   0.29317   1.000
    C149    C    0.08741   0.45167   0.22057   1.000
    C150    C    0.12128   0.40591   0.39082   1.000
    C151    C    0.93101   0.28018   0.41084   1.000
    C152    C    0.59315   0.48132   0.56790   1.000
    C153    C    0.41721   0.32554   0.60214   1.000
    C154    C    0.39513   0.47038   0.65879   1.000
    C155    C    0.43821   0.32302   0.77418   1.000
    C156    C    0.41485   0.29317   0.42026   1.000
    C157    C    0.30782   0.22016   0.32836   1.000
    C158    C    0.51171   0.39025   0.20340   1.000
    C159    C    0.34158   0.41080   0.30877   1.000
    C160    C    0.16083   0.56781   0.95062   1.000
    C161    C    0.01909   0.60233   0.07199   1.000
    C162    C    0.05347   0.65874   0.87061   1.000
    C163    C    0.21164   0.77419   0.90246   1.000
    C164    C    0.83495   0.42062   0.28633   1.000
    C165    C    0.63638   0.32839   0.45142   1.000
    C166    C    0.71596   0.20374   0.40593   1.000
    C167    C    0.65044   0.30894   0.28045   1.000
    C168    C    0.88841   0.04870   0.51912   1.000
    C169    C    0.90929   0.92749   0.67467   1.000
    C170    C    0.07581   0.12904   0.52962   1.000
    C171    C    0.88608   0.09721   0.67704   1.000
    C172    C    0.87825   0.71331   0.70683   1.000
    C173    C    0.91258   0.54836   0.77944   1.000
    C174    C    0.87871   0.59412   0.60918   1.000
    C175    C    0.06898   0.71986   0.58916   1.000
    C176    C    0.40684   0.51871   0.43210   1.000
    C177    C    0.58279   0.67449   0.39787   1.000
    C178    C    0.60486   0.52965   0.34121   1.000
    C179    C    0.56179   0.67701   0.22583   1.000
    C180    C    0.58514   0.70686   0.57970   1.000
    C181    C    0.69217   0.77987   0.67164   1.000
    C182    C    0.48828   0.60978   0.79657   1.000
    C183    C    0.65841   0.58923   0.69120   1.000
    C184    C    0.83916   0.43222   0.04938   1.000
    C185    C    0.98090   0.39771   0.92801   1.000
    C186    C    0.94652   0.34129   0.12940   1.000
    C187    C    0.78836   0.22584   0.09754   1.000
    C188    C    0.16505   0.57941   0.71367   1.000
    C189    C    0.36361   0.67164   0.54858   1.000
    C190    C    0.28404   0.79630   0.59408   1.000
    C191    C    0.34956   0.69109   0.71956   1.000
    O192    O    0.41518   0.69322   0.01717   1.000
    O193    O    0.38564   0.60963   0.02698   1.000
    O194    O    0.33787   0.65457   0.04277   1.000
    O195    O    0.38706   0.69012   0.95622   1.000
    O196    O    0.56698   0.43556   0.98892   1.000
    O197    O    0.30374   0.43424   0.02146   1.000
    O198    O    0.29513   0.35177   0.06025   1.000
    O199    O    0.35157   0.39909   0.98833   1.000
    O200    O    0.26365   0.36313   0.99874   1.000
    O201    O    0.77493   0.69238   0.02882   1.000
    O202    O    0.76735   0.61168   0.07424   1.000
    O203    O    0.82468   0.67526   0.98981   1.000
    O204    O    0.73634   0.63690   0.00127   1.000
    O205    O    0.34530   0.51931   0.03234   1.000
    O206    O    0.25971   0.47066   0.05476   1.000
    O207    O    0.38315   0.53403   0.08385   1.000
    O208    O    0.43301   0.56447   0.01108   1.000
    O209    O    0.17532   0.32477   0.01016   1.000
    O210    O    0.64842   0.60094   0.01167   1.000
    O211    O    0.86014   0.38728   0.05169   1.000
    O212    O    0.75953   0.42221   0.09122   1.000
    O213    O    0.83474   0.28408   0.07577   1.000
    O214    O    0.91382   0.34181   0.09170   1.000
    O215    O    0.93101   0.37002   0.99101   1.000
    O216    O    0.99715   0.52796   0.12075   1.000
    O217    O    0.06898   0.63002   0.00899   1.000
    O218    O    0.63196   0.26243   0.10344   1.000
    O219    O    0.56426   0.25843   0.13094   1.000
    O220    O    0.61293   0.30991   0.04376   1.000
    O221    O    0.79443   0.57007   0.12762   1.000
    O222    O    0.72802   0.56321   0.16230   1.000
    O223    O    0.96086   0.39744   0.14945   1.000
    O224    O    0.59580   0.40122   0.16823   1.000
    O225    O    0.66517   0.36057   0.20675   1.000
    O226    O    0.90507   0.43711   0.22792   1.000
    O227    O    0.45478   0.36150   0.25822   1.000
    O228    O    0.07624   0.40288   0.27676   1.000
    O229    O    0.55008   0.64050   0.28406   1.000
    O230    O    0.30486   0.61062   0.25829   1.000
    O231    O    0.80415   0.02916   0.27868   1.000
    O232    O    0.36870   0.63424   0.26208   1.000
    O233    O    0.89114   0.16212   0.27468   1.000
    O234    O    0.43189   0.01680   0.28987   1.000
    O235    O    0.91643   0.72125   0.30796   1.000
    O236    O    0.27740   0.71045   0.30665   1.000
    O237    O    0.68079   0.31110   0.31725   1.000
    O238    O    0.38030   0.04264   0.30280   1.000
    O239    O    0.30240   0.64637   0.30968   1.000
    O240    O    0.77305   0.36695   0.32019   1.000
    O241    O    0.09340   0.32041   0.31306   1.000
    O242    O    0.13325   0.22798   0.33518   1.000
    O243    O    0.92243   0.12686   0.30282   1.000
    O244    O    0.84973   0.66511   0.32488   1.000
    O245    O    0.84206   0.07413   0.31417   1.000
    O246    O    0.36972   0.37178   0.31090   1.000
    O247    O    0.30463   0.43282   0.36037   1.000
    O248    O    0.35284   0.27646   0.32070   1.000
    O249    O    0.40635   0.31296   0.36665   1.000
    O250    O    0.94262   0.58806   0.35202   1.000
    O251    O    0.81464   0.98968   0.33488   1.000
    O252    O    0.73805   0.00161   0.36168   1.000
    O253    O    0.34289   0.95603   0.35384   1.000
    O254    O    0.41215   0.02658   0.36364   1.000
    O255    O    0.08931   0.92461   0.35942   1.000
    O256    O    0.11773   0.12089   0.35125   1.000
    O257    O    0.07770   0.00947   0.36061   1.000
    O258    O    0.09317   0.38000   0.36189   1.000
    O259    O    0.99804   0.31714   0.37190   1.000
    O260    O    0.31626   0.69741   0.34519   1.000
    O261    O    0.22369   0.63665   0.39021   1.000
    O262    O    0.57162   0.56682   0.34175   1.000
    O263    O    0.56341   0.45341   0.39731   1.000
    O264    O    0.89974   0.63819   0.36336   1.000
    O265    O    0.84337   0.68586   0.38855   1.000
    O266    O    0.56058   0.63924   0.37007   1.000
    O267    O    0.47261   0.56135   0.38719   1.000
    O268    O    0.26435   0.89655   0.36587   1.000
    O269    O    0.71355   0.25850   0.37999   1.000
    O270    O    0.67376   0.32083   0.40273   1.000
    O271    O    0.46649   0.08331   0.38240   1.000
    O272    O    0.66077   0.01244   0.38706   1.000
    O273    O    0.11028   0.14914   0.45340   1.000
    O274    O    0.30440   0.86886   0.38960   1.000
    O275    O    0.95182   0.61271   0.39935   1.000
    O276    O    0.86903   0.54433   0.43447   1.000
    O277    O    0.19448   0.43038   0.40140   1.000
    O278    O    0.99444   0.90869   0.43313   1.000
    O279    O    0.08814   0.94886   0.43839   1.000
    O280    O    0.53041   0.64867   0.47223   1.000
    O281    O    0.64512   0.94040   0.41170   1.000
    O282    O    0.67526   0.97897   0.45548   1.000
    O283    O    0.44346   0.01040   0.42484   1.000
    O284    O    0.37717   0.03194   0.44858   1.000
    O285    O    0.76465   0.16833   0.43035   1.000
    O286    O    0.87217   0.20655   0.43281   1.000
    O287    O    0.33726   0.48678   0.42203   1.000
    O288    O    0.46840   0.33517   0.43684   1.000
    O289    O    0.77455   0.69735   0.43010   1.000
    O290    O    0.13131   0.57554   0.43544   1.000
    O291    O    0.83408   0.72544   0.43696   1.000
    O292    O    0.15086   0.61794   0.46584   1.000
    O293    O    0.17410   0.55168   0.48051   1.000
    O294    O    0.46958   0.35136   0.52777   1.000
    O295    O    0.85087   0.09082   0.48695   1.000
    O296    O    0.31420   0.05468   0.47467   1.000
    O297    O    0.78872   0.47452   0.47093   1.000
    O298    O    0.88971   0.85089   0.54659   1.000
    O299    O    0.14912   0.90922   0.51306   1.000
    O300    O    0.82589   0.44835   0.51949   1.000
    O301    O    0.32473   0.02106   0.54452   1.000
    O302    O    0.68579   0.94535   0.52533   1.000
    O303    O    0.62283   0.96809   0.55141   1.000
    O304    O    0.84914   0.38209   0.53416   1.000
    O305    O    0.21127   0.52551   0.52908   1.000
    O306    O    0.13097   0.45570   0.56553   1.000
    O307    O    0.91186   0.05117   0.56161   1.000
    O308    O    0.00555   0.09134   0.56687   1.000
    O309    O    0.12782   0.79348   0.56719   1.000
    O310    O    0.23535   0.83170   0.56965   1.000
    O311    O    0.53159   0.66486   0.56315   1.000
    O312    O    0.43659   0.54662   0.60269   1.000
    O313    O    0.32623   0.67920   0.59726   1.000
    O314    O    0.55653   0.98963   0.57515   1.000
    O315    O    0.86868   0.42450   0.56456   1.000
    O316    O    0.77630   0.36338   0.60979   1.000
    O317    O    0.16592   0.27459   0.56305   1.000
    O318    O    0.22544   0.30268   0.56989   1.000
    O319    O    0.15662   0.31417   0.61142   1.000
    O320    O    0.66273   0.51325   0.57797   1.000
    O321    O    0.52738   0.43868   0.61281   1.000
    O322    O    0.59364   0.68707   0.63333   1.000
    O323    O    0.35487   0.05963   0.58829   1.000
    O324    O    0.04818   0.38732   0.60066   1.000
    O325    O    0.80552   0.56966   0.59861   1.000
    O326    O    0.69536   0.56721   0.63962   1.000
    O327    O    0.00196   0.68289   0.62808   1.000
    O328    O    0.28644   0.74153   0.62001   1.000
    O329    O    0.53351   0.91672   0.61757   1.000
    O330    O    0.58785   0.97346   0.63635   1.000
    O331    O    0.33923   0.98760   0.61294   1.000
    O332    O    0.26194   0.99842   0.63832   1.000
    O333    O    0.43941   0.36079   0.62993   1.000
    O334    O    0.92229   0.99057   0.63939   1.000
    O335    O    0.91069   0.07543   0.64058   1.000
    O336    O    0.69560   0.13117   0.61039   1.000
    O337    O    0.90682   0.62003   0.63809   1.000
    O338    O    0.10026   0.36184   0.63661   1.000
    O339    O    0.05737   0.41197   0.64798   1.000
    O340    O    0.73564   0.10348   0.63413   1.000
    O341    O    0.65711   0.04401   0.64616   1.000
    O342    O    0.88226   0.87914   0.64874   1.000
    O343    O    0.86675   0.77205   0.66481   1.000
    O344    O    0.68373   0.30262   0.65480   1.000
    O345    O    0.22695   0.63309   0.67981   1.000
    O346    O    0.31920   0.68893   0.68276   1.000
    O347    O    0.18535   0.01036   0.66512   1.000
    O348    O    0.42837   0.43321   0.65825   1.000
    O349    O    0.44991   0.35953   0.71595   1.000
    O350    O    0.15027   0.33492   0.67510   1.000
    O351    O    0.08356   0.27878   0.69201   1.000
    O352    O    0.69759   0.35366   0.69032   1.000
    O353    O    0.72260   0.28958   0.69335   1.000
    O354    O    0.90659   0.67962   0.68692   1.000
    O355    O    0.92376   0.59715   0.72322   1.000
    O356    O    0.64716   0.72357   0.67930   1.000
    O357    O    0.61969   0.95739   0.69716   1.000
    O358    O    0.56811   0.98323   0.71013   1.000
    O359    O    0.15793   0.92590   0.68583   1.000
    O360    O    0.19584   0.97087   0.72132   1.000
    O361    O    0.63027   0.62825   0.68909   1.000
    O362    O    0.54521   0.63853   0.74177   1.000
    O363    O    0.07756   0.87317   0.69718   1.000
    O364    O    0.10885   0.83791   0.72530   1.000
    O365    O    0.09492   0.56292   0.77209   1.000
    O366    O    0.63129   0.36580   0.73792   1.000
    O367    O    0.69514   0.38941   0.74172   1.000
    O368    O    0.33483   0.63947   0.79325   1.000
    O369    O    0.40419   0.59881   0.83176   1.000
    O370    O    0.27197   0.43683   0.83770   1.000
    O371    O    0.03913   0.60259   0.85056   1.000
    O372    O    0.00285   0.47207   0.87926   1.000
    O373    O    0.43574   0.74160   0.86904   1.000
    O374    O    0.24046   0.57782   0.90878   1.000
    O375    O    0.08617   0.65822   0.90830   1.000
    O376    O    0.20556   0.42997   0.87238   1.000
    O377    O    0.61684   0.46600   0.91610   1.000
    O378    O    0.23264   0.38835   0.92575   1.000
    O379    O    0.36803   0.73760   0.89655   1.000
    O380    O    0.70486   0.64826   0.93975   1.000
    O381    O    0.16525   0.71595   0.92423   1.000
    O382    O    0.74029   0.52938   0.94524   1.000
    O383    O    0.66213   0.34546   0.95722   1.000
    O384    O    0.13985   0.61276   0.94831   1.000
    O385    O    0.65470   0.48072   0.96766   1.000
    O386    O    0.61435   0.39040   0.97299   1.000
    O387    O    0.22507   0.30765   0.97118   1.000
    O388    O    0.69626   0.56580   0.97854   1.000
    O389    O    0.58482   0.30681   0.98281   1.000
    O390    O    0.03131   0.45263   0.19504   1.000
    O391    O    0.22629   0.19470   0.35277   1.000
    O392    O    0.57917   0.35278   0.45242   1.000
    O393    O    0.96869   0.54740   0.80497   1.000
    O394    O    0.77371   0.80533   0.64722   1.000
    O395    O    0.42083   0.64725   0.54758   1.000
loop_
    _geom_bond_atom_site_label_1
    _geom_bond_atom_site_label_2
    _geom_bond_distance
    _geom_bond_site_symmetry_2
    _ccdc_geom_bond_type
    C110   O192      0.54967      .   S
    C55    O192      0.54967      .   S
    C110   O193      0.76598      .   S
    C111   O193      0.76598      .   S
    C110   O194      0.54996      .   S
    C56    O194      0.54996      .   S
    C110   O195      0.74099  1_554   S
    C132   O195      0.74099      .   S
    C99    O196      0.54761  1_554   S
    C123   O196      0.54761      .   S
    C112   O197      0.73751      .   S
    C133   O197      0.73751      .   S
    C112   O198      0.54956      .   S
    C57    O198      0.54956      .   S
    C112   O199      0.54811  1_554   S
    C58    O199      0.54811      .   S
    C112   O200      0.76393  1_554   S
    C113   O200      0.76393      .   S
    C125   O201      0.54878      .   S
    C100   O201      0.54878      .   S
    C125   O202      0.74524      .   S
    C143   O202      0.74524      .   S
    C125   O203      0.54903  1_554   S
    C101   O203      0.54903      .   S
    C125   O204      0.76393      .   S
    C124   O204      0.76393  1_556   S
    C133   O205      0.73654      .   S
    C111   O205      0.73654      .   S
    C133   O206      0.51654      .   S
    C52    O206      0.51654      .   S
    C111   O207      0.54946      .   S
    C59    O207      0.54946      .   S
    C111   O208      0.54761      .   S
    C60    O208      0.54761  1_556   S
    C62    O209      0.54889      .   S
    C113   O209      0.54889  1_556   S
    C97    O210      0.54811      .   S
    C124   O210      0.54811  1_556   S
    C184   O211      0.78119      .   S
    C22    O211      0.78119      .   S
    C184   O212      0.99422      .   S
    C11    O212      0.99422      .   S
    C22    O213      0.74940      .   S
    C187   O213      0.74940      .   S
    C22    O214      0.80288      .   S
    C186   O214      0.80288      .   S
    C22    O215      0.79723  1_554   S
    C185   O215      0.79723      .   S
    C161   O216      0.93416  1_455   S
    C4     O216      0.93416      .   S
    C161   O217      0.79723      .   S
    C16    O217      0.79723  1_556   S
    C141   O218      0.52329      .   S
    C90    O218      0.52329      .   S
    C141   O219      0.51135      .   S
    C89    O219      0.51135      .   S
    C141   O220      0.74125      .   S
    C122   O220      0.74125  1_556   S
    C143   O221      0.51517      .   S
    C93    O221      0.51517      .   S
    C143   O222      0.51881      .   S
    C92    O222      0.51881      .   S
    C186   O223      0.93960      .   S
    C4     O223      0.93960      .   S
    C11    O224      1.02743      .   S
    C158   O224      1.02743      .   S
    C11    O225      0.97065      .   S
    C167   O225      0.97065      .   S
    C4     O226      0.94363      .   S
    C164   O226      0.94363      .   S
    C158   O227      0.76284      .   S
    C15    O227      0.76284      .   S
    C149   O228      0.79404      .   S
    C13    O228      0.79404      .   S
    C179   O229      0.74935      .   S
    C20    O229      0.74935      .   S
    C76    O230      0.51136      .   S
    C138   O230      0.51136      .   S
    C74    O231      0.54872      .   S
    C117   O231      0.54872      .   S
    C77    O232      0.52312      .   S
    C138   O232      0.52312      .   S
    C66    O233      0.51871      .   S
    C137   O233      0.51871      .   S
    C29    O234      0.54968      .   S
    C102   O234      0.54968      .   S
    C48    O235      0.54875      .   S
    C109   O235      0.54875      .   S
    C81    O236      0.54972      .   S
    C118   O236      0.54972      .   S
    C167   O237      0.77107      .   S
    C17    O237      0.77107      .   S
    C30    O238      0.54996      .   S
    C102   O238      0.54996      .   S
    C138   O239      0.74106      .   S
    C118   O239      0.74106      .   S
    C164   O240      0.78419      .   S
    C17    O240      0.78419      .   S
    C148   O241      0.78398      .   S
    C13    O241      0.78398      .   S
    C148   O242      0.94386      .   S
    C0     O242      0.94386      .   S
    C67    O243      0.51536      .   S
    C137   O243      0.51536      .   S
    C49    O244      0.54909      .   S
    C109   O244      0.54909      .   S
    C137   O245      0.74529      .   S
    C117   O245      0.74529      .   S
    C159   O246      0.77109      .   S
    C15    O246      0.77109      .   S
    C159   O247      0.97107      .   S
    C9     O247      0.97107      .   S
    C15    O248      0.79434      .   S
    C157   O248      0.79434      .   S
    C15    O249      0.78426      .   S
    C156   O249      0.78426      .   S
    C44    O250      0.54953      .   S
    C108   O250      0.54953      .   S
    C117   O251      0.54890  1_545   S
    C75    O251      0.54890      .   S
    C117   O252      0.76415      .   S
    C116   O252      0.76415  1_565   S
    C102   O253      0.74086  1_545   S
    C126   O253      0.74086      .   S
    C102   O254      0.76592      .   S
    C103   O254      0.76592      .   S
    C147   O255      0.74930      .   S
    C12    O255      0.74930      .   S
    C145   O256      0.93480      .   S
    C0     O256      0.93480      .   S
    C145   O257      0.79749      .   S
    C12    O257      0.79749  1_565   S
    C13    O258      0.76274      .   S
    C150   O258      0.76274      .   S
    C13    O259      0.77097  1_455   S
    C151   O259      0.77097      .   S
    C118   O260      0.54996      .   S
    C82    O260      0.54996      .   S
    C118   O261      0.76596      .   S
    C119   O261      0.76596      .   S
    C178   O262      0.80288      .   S
    C20    O262      0.80288      .   S
    C178   O263      0.93965      .   S
    C2     O263      0.93965      .   S
    C109   O264      0.76415      .   S
    C108   O264      0.76415      .   S
    C109   O265      0.74522      .   S
    C131   O265      0.74522      .   S
    C20    O266      0.79756      .   S
    C177   O266      0.79756      .   S
    C20    O267      0.78097      .   S
    C176   O267      0.78097      .   S
    C25    O268      0.52316      .   S
    C126   O268      0.52316      .   S
    C17    O269      0.76264      .   S
    C166   O269      0.76264      .   S
    C17    O270      0.79409      .   S
    C165   O270      0.79409      .   S
    C33    O271      0.55000      .   S
    C103   O271      0.55000      .   S
    C71    O272      0.54797      .   S
    C116   O272      0.54797  1_565   S
    C0     O273      0.93984      .   S
    C170   O273      0.93984      .   S
    C126   O274      0.51136      .   S
    C24    O274      0.51136      .   S
    C108   O275      0.54812      .   S
    C45    O275      0.54812      .   S
    C108   O276      0.73747      .   S
    C130   O276      0.73747      .   S
    C150   O277      1.02501      .   S
    C9     O277      1.02501      .   S
    C12    O278      0.80256  1_455   S
    C146   O278      0.80256      .   S
    C12    O279      0.78133      .   S
    C144   O279      0.78133      .   S
    C177   O280      0.93434      .   S
    C8     O280      0.93434      .   S
    C116   O281      0.54953      .   S
    C70    O281      0.54953      .   S
    C116   O282      0.73754      .   S
    C136   O282      0.73754      .   S
    C103   O283      0.54757      .   S
    C34    O283      0.54757  1_565   S
    C103   O284      0.73661      .   S
    C127   O284      0.73661      .   S
    C166   O285      1.02627      .   S
    C7     O285      1.02627      .   S
    C151   O286      0.97073      .   S
    C7     O286      0.97073      .   S
    C9     O287      0.99418      .   S
    C176   O287      0.99418      .   S
    C156   O288      0.94377      .   S
    C2     O288      0.94377      .   S
    C41    O289      0.51525      .   S
    C131   O289      0.51525      .   S
    C86    O290      0.54764      .   S
    C119   O290      0.54764      .   S
    C131   O291      0.51866      .   S
    C40    O291      0.51866      .   S
    C119   O292      0.55002      .   S
    C85    O292      0.55002      .   S
    C119   O293      0.73657      .   S
    C139   O293      0.73657      .   S
    C2     O294      0.93439      .   S
    C153   O294      0.93439      .   S
    C7     O295      0.99412      .   S
    C168   O295      0.99412      .   S
    C26    O296      0.51658      .   S
    C127   O296      0.51658      .   S
    C39    O297      0.51655      .   S
    C130   O297      0.51655      .   S
    C146   O298      0.93971      .   S
    C6     O298      0.93971      .   S
    C144   O299      0.99409      .   S
    C1     O299      0.99409      .   S
    C130   O300      0.73657      .   S
    C107   O300      0.73657      .   S
    C127   O301      0.73754      .   S
    C104   O301      0.73754      .   S
    C136   O302      0.51658      .   S
    C65    O302      0.51658      .   S
    C136   O303      0.73654      .   S
    C115   O303      0.73654      .   S
    C46    O304      0.55002      .   S
    C107   O304      0.55002      .   S
    C139   O305      0.51660      .   S
    C78    O305      0.51660      .   S
    C139   O306      0.73750      .   S
    C120   O306      0.73750      .   S
    C168   O307      0.78127      .   S
    C18    O307      0.78127      .   S
    C170   O308      0.80256      .   S
    C18    O308      0.80256  1_655   S
    C1     O309      0.97073      .   S
    C175   O309      0.97073      .   S
    C1     O310      1.02630      .   S
    C190   O310      1.02630      .   S
    C8     O311      0.94356      .   S
    C180   O311      0.94356      .   S
    C8     O312      0.93965      .   S
    C154   O312      0.93965      .   S
    C189   O313      0.79409      .   S
    C23    O313      0.79409      .   S
    C73    O314      0.54752  1_545   S
    C115   O314      0.54752      .   S
    C107   O315      0.54764      .   S
    C47    O315      0.54764      .   S
    C107   O316      0.76596      .   S
    C106   O316      0.76596      .   S
    C79    O317      0.51866      .   S
    C140   O317      0.51866      .   S
    C140   O318      0.51525      .   S
    C80    O318      0.51525      .   S
    C140   O319      0.74490      .   S
    C121   O319      0.74490      .   S
    C152   O320      0.99418      .   S
    C3     O320      0.99418      .   S
    C152   O321      0.78097      .   S
    C14    O321      0.78097      .   S
    C180   O322      0.78459      .   S
    C21    O322      0.78459      .   S
    C31    O323      0.54950      .   S
    C104   O323      0.54950      .   S
    C84    O324      0.54818      .   S
    C120   O324      0.54818      .   S
    C3     O325      1.02501      .   S
    C174   O325      1.02501      .   S
    C3     O326      0.97092      .   S
    C183   O326      0.97092      .   S
    C175   O327      0.77094      .   S
    C19    O327      0.77094  1_655   S
    C190   O328      0.76263      .   S
    C23    O328      0.76263      .   S
    C115   O329      0.55001      .   S
    C72    O329      0.55001      .   S
    C115   O330      0.76606      .   S
    C114   O330      0.76606      .   S
    C104   O331      0.54798  1_545   S
    C32    O331      0.54798      .   S
    C104   O332      0.76415  1_545   S
    C105   O332      0.76415      .   S
    C153   O333      0.79750      .   S
    C14    O333      0.79750      .   S
    C18    O334      0.79749  1_545   S
    C169   O334      0.79749      .   S
    C18    O335      0.74930      .   S
    C171   O335      0.74930      .   S
    C63    O336      0.51135      .   S
    C135   O336      0.51135      .   S
    C174   O337      0.76248      .   S
    C19    O337      0.76248      .   S
    C120   O338      0.76402      .   S
    C121   O338      0.76402      .   S
    C120   O339      0.54948      .   S
    C83    O339      0.54948      .   S
    C135   O340      0.52316      .   S
    C64    O340      0.52316      .   S
    C135   O341      0.74086      .   S
    C114   O341      0.74086  1_565   S
    C6     O342      0.93491      .   S
    C169   O342      0.93491      .   S
    C6     O343      0.94391      .   S
    C172   O343      0.94391      .   S
    C43    O344      0.54996      .   S
    C106   O344      0.54996      .   S
    C23    O345      0.78419      .   S
    C188   O345      0.78419      .   S
    C23    O346      0.77113      .   S
    C191   O346      0.77113      .   S
    C36    O347      0.54888      .   S
    C105   O347      0.54888  1_565   S
    C14    O348      0.80288      .   S
    C154   O348      0.80288      .   S
    C14    O349      0.74940      .   S
    C155   O349      0.74940      .   S
    C121   O350      0.54944      .   S
    C88    O350      0.54944      .   S
    C121   O351      0.54884      .   S
    C87    O351      0.54884      .   S
    C106   O352      0.74106      .   S
    C129   O352      0.74106      .   S
    C106   O353      0.54971      .   S
    C42    O353      0.54971      .   S
    C19    O354      0.78410      .   S
    C172   O354      0.78410      .   S
    C19    O355      0.79428      .   S
    C173   O355      0.79428      .   S
    C181   O356      0.79430      .   S
    C21    O356      0.79430      .   S
    C114   O357      0.54977      .   S
    C69    O357      0.54977      .   S
    C114   O358      0.54971      .   S
    C68    O358      0.54971      .   S
    C105   O359      0.74529      .   S
    C128   O359      0.74529      .   S
    C105   O360      0.54872      .   S
    C35    O360      0.54872      .   S
    C21    O361      0.77111      .   S
    C183   O361      0.77111      .   S
    C21    O362      0.76269      .   S
    C182   O362      0.76269      .   S
    C128   O363      0.51536      .   S
    C28    O363      0.51536      .   S
    C128   O364      0.51856      .   S
    C27    O364      0.51856      .   S
    C188   O365      0.94363      .   S
    C10    O365      0.94363      .   S
    C129   O366      0.52312      .   S
    C38    O366      0.52312      .   S
    C129   O367      0.51142      .   S
    C37    O367      0.51142      .   S
    C191   O368      0.97060      .   S
    C5     O368      0.97060      .   S
    C182   O369      1.02745      .   S
    C5     O369      1.02745      .   S
    C53    O370      0.51875      .   S
    C134   O370      0.51875      .   S
    C10    O371      0.93965      .   S
    C162   O371      0.93965      .   S
    C10    O372      0.93416      .   S
    C185   O372      0.93416  1_655   S
    C50    O373      0.51143      .   S
    C132   O373      0.51143      .   S
    C5     O374      0.99422      .   S
    C160   O374      0.99422      .   S
    C162   O375      0.80282      .   S
    C16    O375      0.80282      .   S
    C54    O376      0.51518      .   S
    C134   O376      0.51518      .   S
    C98    O377      0.54997      .   S
    C123   O377      0.54997      .   S
    C134   O378      0.74524      .   S
    C113   O378      0.74524      .   S
    C51    O379      0.52329      .   S
    C132   O379      0.52329      .   S
    C96    O380      0.54956      .   S
    C124   O380      0.54956      .   S
    C163   O381      0.74940      .   S
    C16    O381      0.74940      .   S
    C91    O382      0.51651      .   S
    C142   O382      0.51651      .   S
    C95    O383      0.54983      .   S
    C122   O383      0.54983      .   S
    C16    O384      0.78119      .   S
    C160   O384      0.78119      .   S
    C123   O385      0.73654      .   S
    C142   O385      0.73654      .   S
    C123   O386      0.76600      .   S
    C122   O386      0.76600      .   S
    C61    O387      0.54875      .   S
    C113   O387      0.54875      .   S
    C142   O388      0.73751      .   S
    C124   O388      0.73751      .   S
    C94    O389      0.54949      .   S
    C122   O389      0.54949      .   S
    C149   O390      0.94657      .   S
    C4     O390      0.94657  1_655   S
    C157   O391      0.94662      .   S
    C0     O391      0.94662      .   S
    C165   O392      0.94677      .   S
    C2     O392      0.94677      .   S
    C173   O393      0.94652      .   S
    C10    O393      0.94652  1_455   S
    C181   O394      0.94660      .   S
    C6     O394      0.94660      .   S
    C189   O395      0.94676      .   S
    C8     O395      0.94676      .   S
