# CIF file generated by openbabel 2.4.90, see http://openbabel.sf.net
data_I
_chemical_name_common ''
_cell_length_a 13.585
_cell_length_b 14.447
_cell_length_c 14.451
_cell_angle_alpha 69.286
_cell_angle_beta 71.796
_cell_angle_gamma 108.206
_space_group_name_H-M_alt 'P 1'
_space_group_name_Hall 'P 1'
loop_
    _symmetry_equiv_pos_as_xyz
    x,y,z
loop_
    _atom_site_label
    _atom_site_type_symbol
    _atom_site_fract_x
    _atom_site_fract_y
    _atom_site_fract_z
    _atom_site_occupancy
    Zr0     Zr   0.14475   0.16924   0.37718   1.000
    Zr1     Zr   0.18666   0.86710   0.54522   1.000
    Zr2     Zr   0.52195   0.37718   0.45341   1.000
    Zr3     Zr   0.73232   0.54519   0.58803   1.000
    Zr4     Zr   0.97520   0.45360   0.16950   1.000
    Zr5     Zr   0.32010   0.58784   0.86694   1.000
    Zr6     Zr   0.85524   0.83079   0.62280   1.000
    Zr7     Zr   0.81334   0.13293   0.45478   1.000
    Zr8     Zr   0.47804   0.62285   0.54659   1.000
    Zr9     Zr   0.26768   0.45484   0.41197   1.000
    Zr10    Zr   0.02479   0.54644   0.83050   1.000
    Zr11    Zr   0.67990   0.41219   0.13306   1.000
    N12     N    0.70115   0.01988   0.48997   1.000
    N13     N    0.44991   0.35953   0.71595   1.000
    O14     O    0.41586   0.50850   0.63074   1.000
    O15     O    0.62794   0.49729   0.57293   1.000
    O16     O    0.44339   0.33845   0.56496   1.000
    N17     N    0.68105   0.49026   0.01966   1.000
    N18     N    0.91069   0.07543   0.64058   1.000
    O19     O    0.89577   0.90332   0.66170   1.000
    O20     O    0.09304   0.13909   0.49151   1.000
    O21     O    0.86964   0.06976   0.50304   1.000
    N22     N    0.28885   0.68676   0.64595   1.000
    O23     O    0.34219   0.66528   0.75640   1.000
    O24     O    0.25969   0.81400   0.58186   1.000
    O25     O    0.12998   0.57116   0.74288   1.000
    O26     O    0.39222   0.65945   0.54808   1.000
    N27     N    0.31894   0.50977   0.98033   1.000
    N28     N    0.80897   0.50988   0.50996   1.000
    N29     N    0.19102   0.49015   0.49003   1.000
    N30     N    0.29884   0.98015   0.51002   1.000
    N31     N    0.06507   0.35410   0.33296   1.000
    O32     O    0.15788   0.41814   0.39611   1.000
    O33     O    0.12749   0.25735   0.31417   1.000
    O34     O    0.90159   0.24337   0.42182   1.000
    O35     O    0.05936   0.45215   0.20780   1.000
    N36     N    0.16525   0.71595   0.92423   1.000
    O37     O    0.04630   0.63067   0.86058   1.000
    O38     O    0.00812   0.56514   0.09637   1.000
    O39     O    0.20065   0.57282   0.92970   1.000
    N40     N    0.39786   0.33276   0.31304   1.000
    O41     O    0.32311   0.42181   0.33457   1.000
    O42     O    0.26705   0.20743   0.34057   1.000
    O43     O    0.55376   0.39573   0.18582   1.000
    O44     O    0.44163   0.31417   0.42855   1.000
    N45     N    0.93493   0.64593   0.66700   1.000
    O46     O    0.94063   0.54788   0.79221   1.000
    O47     O    0.87250   0.74268   0.68582   1.000
    O48     O    0.09840   0.75667   0.57818   1.000
    O49     O    0.84211   0.58189   0.60389   1.000
    N50     N    0.08931   0.92461   0.35942   1.000
    O51     O    0.13035   0.93027   0.49697   1.000
    O52     O    0.10422   0.09672   0.33829   1.000
    O53     O    0.90695   0.86095   0.50848   1.000
    N54     N    0.55008   0.64050   0.28406   1.000
    O55     O    0.58413   0.49153   0.36926   1.000
    O56     O    0.37205   0.50274   0.42707   1.000
    O57     O    0.55660   0.66158   0.43505   1.000
    N58     N    0.83474   0.28408   0.07577   1.000
    O59     O    0.95369   0.36937   0.13942   1.000
    O60     O    0.99187   0.43489   0.90363   1.000
    O61     O    0.79935   0.42722   0.07030   1.000
    N62     N    0.60214   0.66728   0.68697   1.000
    O63     O    0.55837   0.68586   0.57142   1.000
    O64     O    0.44624   0.60430   0.81416   1.000
    O65     O    0.67689   0.57822   0.66541   1.000
    O66     O    0.73294   0.79260   0.65943   1.000
    N67     N    0.71115   0.31327   0.35405   1.000
    O68     O    0.60778   0.34059   0.45192   1.000
    O69     O    0.87001   0.42887   0.25712   1.000
    O70     O    0.74030   0.18603   0.41814   1.000
    O71     O    0.65780   0.33475   0.24360   1.000
loop_
    _geom_bond_atom_site_label_1
    _geom_bond_atom_site_label_2
    _geom_bond_distance
    _geom_bond_site_symmetry_2
    _ccdc_geom_bond_type
    N13    O14       2.33776      .   S
    Zr8    O14       1.40948      .   S
    N13    O15       2.24525      .   S
    Zr3    O15       1.49128      .   S
    N13    O16       2.33146      .   S
    Zr2    O16       1.40159      .   S
    N18    O19       2.32943  1_545   S
    Zr6    O19       1.40237      .   S
    N18    O20       2.33747  1_655   S
    Zr0    O20       1.40976      .   S
    N18    O21       2.24658      .   S
    Zr7    O21       1.49118      .   S
    N22    O23       1.91888      .   S
    Zr5    O23       1.45590      .   S
    N22    O24       1.96807      .   S
    Zr1    O24       1.53945      .   S
    N22    O25       1.90081      .   S
    Zr10   O25       1.41545      .   S
    N22    O26       1.90480      .   S
    Zr8    O26       1.42014      .   S
    N31    O32       1.96616      .   S
    Zr9    O32       1.53751      .   S
    N31    O33       1.90047      .   S
    Zr0    O33       1.41578      .   S
    N31    O34       1.91968  1_455   S
    Zr7    O34       1.45610      .   S
    N31    O35       1.90465      .   S
    Zr4    O35       1.41985  1_655   S
    N36    O37       2.33699      .   S
    Zr10   O37       1.40947      .   S
    N36    O38       2.33102  1_556   S
    Zr4    O38       1.40125  1_655   S
    N36    O39       2.24558      .   S
    Zr5    O39       1.49132      .   S
    N40    O41       1.91974      .   S
    Zr9    O41       1.45661      .   S
    N40    O42       1.90590      .   S
    Zr0    O42       1.41993      .   S
    N40    O43       1.96806      .   S
    Zr11   O43       1.54114      .   S
    N40    O44       1.90124      .   S
    Zr2    O44       1.41566      .   S
    N45    O46       1.90513      .   S
    Zr10   O46       1.41978  1_455   S
    N45    O47       1.90060      .   S
    Zr6    O47       1.41587      .   S
    N45    O48       1.91967  1_655   S
    Zr1    O48       1.45610      .   S
    N45    O49       1.96568      .   S
    Zr3    O49       1.53751      .   S
    N50    O51       2.24668      .   S
    Zr1    O51       1.49114      .   S
    N50    O52       2.32941  1_565   S
    Zr0    O52       1.40220      .   S
    N50    O53       2.33744  1_455   S
    Zr6    O53       1.40957      .   S
    N54    O55       2.33774      .   S
    Zr2    O55       1.40948      .   S
    N54    O56       2.24523      .   S
    Zr9    O56       1.49128      .   S
    N54    O57       2.33150      .   S
    Zr8    O57       1.40151      .   S
    N58    O59       2.33707      .   S
    Zr4    O59       1.40940      .   S
    N58    O60       2.33102  1_554   S
    Zr10   O60       1.40125  1_455   S
    N58    O61       2.24558      .   S
    Zr11   O61       1.49132      .   S
    N62    O63       1.90177      .   S
    Zr8    O63       1.41534      .   S
    N62    O64       1.96786      .   S
    Zr5    O64       1.54117      .   S
    N62    O65       1.91985      .   S
    Zr3    O65       1.45637      .   S
    N62    O66       1.90581      .   S
    Zr6    O66       1.41990      .   S
    N67    O68       1.90479      .   S
    Zr2    O68       1.42015      .   S
    N67    O69       1.90081      .   S
    Zr4    O69       1.41545      .   S
    N67    O70       1.96809      .   S
    Zr7    O70       1.53941      .   S
    N67    O71       1.91878      .   S
    Zr11   O71       1.45598      .   S
