# CIF file generated by openbabel 2.4.90, see http://openbabel.sf.net
data_I
_chemical_name_common ''
_cell_length_a 12.513
_cell_length_b 14.768
_cell_length_c 14.758
_cell_angle_alpha 120.039
_cell_angle_beta 90.035
_cell_angle_gamma 90.047
_space_group_name_H-M_alt 'P 1'
_space_group_name_Hall 'P 1'
loop_
    _symmetry_equiv_pos_as_xyz
    x,y,z
loop_
    _atom_site_label
    _atom_site_type_symbol
    _atom_site_fract_x
    _atom_site_fract_y
    _atom_site_fract_z
    _atom_site_occupancy
    In0     In   0.49964   0.50022   0.49948   1.000
    In1     In   0.83329   0.00041   0.50042   1.000
    H2      H    0.91308   0.65951   0.88255   1.000
    H3      H    0.90825   0.32220   0.71498   1.000
    H4      H    0.24549   0.22219   0.33971   1.000
    H5      H    0.24446   0.39286   0.67734   1.000
    H6      H    0.57989   0.11573   0.78108   1.000
    H7      H    0.57696   0.28209   0.61028   1.000
    H8      H    0.91272   0.34017   0.11775   1.000
    H9      H    0.90886   0.67745   0.28370   1.000
    H10     H    0.24517   0.77748   0.66029   1.000
    H11     H    0.24313   0.60771   0.32264   1.000
    H12     H    0.57990   0.88401   0.21930   1.000
    H13     H    0.57697   0.71768   0.39023   1.000
    H14     H    0.42000   0.77990   0.11538   1.000
    H15     H    0.42293   0.60997   0.28259   1.000
    H16     H    0.08694   0.88267   0.66009   1.000
    H17     H    0.09071   0.71651   0.32257   1.000
    H18     H    0.75393   0.34006   0.22243   1.000
    H19     H    0.75582   0.67744   0.39194   1.000
    H20     H    0.41988   0.21930   0.88459   1.000
    H21     H    0.42290   0.38932   0.71740   1.000
    H22     H    0.08675   0.11759   0.34036   1.000
    H23     H    0.09143   0.28477   0.67789   1.000
    H24     H    0.75453   0.66034   0.77780   1.000
    H25     H    0.75532   0.32294   0.60686   1.000
    C26     C    0.87707   0.58686   0.82250   1.000
    C27     C    0.92000   0.49108   0.80395   1.000
    C28     C    0.87530   0.39573   0.72720   1.000
    C29     C    0.01195   0.49112   0.86740   1.000
    C30     C    0.21030   0.23518   0.41275   1.000
    C31     C    0.25443   0.31239   0.50819   1.000
    In32    In   0.16665   0.49946   0.99971   1.000
    C33     C    0.21078   0.33158   0.60401   1.000
    C34     C    0.34654   0.37491   0.50703   1.000
    C35     C    0.54392   0.17527   0.76786   1.000
    C36     C    0.58786   0.19374   0.69081   1.000
    C37     C    0.54336   0.26991   0.67140   1.000
    C38     C    0.68076   0.13076   0.62904   1.000
    C39     C    0.87688   0.41299   0.17740   1.000
    C40     C    0.92011   0.50856   0.19553   1.000
    C41     C    0.87565   0.60409   0.27183   1.000
    C42     C    0.01198   0.50826   0.13198   1.000
    C43     C    0.20982   0.76477   0.58736   1.000
    C44     C    0.25347   0.68765   0.49177   1.000
    C45     C    0.20970   0.66889   0.39606   1.000
    C46     C    0.34525   0.62471   0.49252   1.000
    C47     C    0.54394   0.82436   0.23250   1.000
    C48     C    0.58786   0.80605   0.30969   1.000
    C49     C    0.54338   0.72976   0.32901   1.000
    C50     C    0.68073   0.86932   0.37166   1.000
    C51     C    0.45598   0.76700   0.17520   1.000
    C52     C    0.41205   0.69007   0.19380   1.000
    C53     C    0.45656   0.67103   0.27033   1.000
    C54     C    0.31917   0.62804   0.13066   1.000
    C55     C    0.12261   0.82278   0.58725   1.000
    C56     C    0.07949   0.80472   0.49157   1.000
    C57     C    0.12377   0.72824   0.39597   1.000
    C58     C    0.98778   0.86832   0.49179   1.000
    C59     C    0.78932   0.41294   0.23516   1.000
    C60     C    0.74534   0.50845   0.31200   1.000
    C61     C    0.78932   0.60404   0.33087   1.000
    C62     C    0.65305   0.50764   0.37440   1.000
    C63     C    0.45589   0.23234   0.82490   1.000
    C64     C    0.41195   0.30916   0.80618   1.000
    C65     C    0.45650   0.32837   0.72980   1.000
    C66     C    0.31906   0.37098   0.86914   1.000
    C67     C    0.12278   0.17750   0.41310   1.000
    C68     C    0.07979   0.19598   0.50889   1.000
    C69     C    0.12446   0.27260   0.60436   1.000
    C70     C    0.98784   0.13255   0.50882   1.000
    C71     C    0.78964   0.58729   0.76474   1.000
    C72     C    0.74547   0.49198   0.68742   1.000
    C73     C    0.78904   0.39618   0.66821   1.000
    C74     C    0.65343   0.49318   0.62477   1.000
    O75     O    0.06992   0.57270   0.91775   1.000
    O76     O    0.03269   0.40971   0.87384   1.000
    O77     O    0.40259   0.34389   0.42449   1.000
    O78     O    0.36951   0.46225   0.58870   1.000
    O79     O    0.73662   0.07968   0.66016   1.000
    O80     O    0.70393   0.12630   0.54206   1.000
    O81     O    0.06972   0.42662   0.08179   1.000
    O82     O    0.03285   0.58953   0.12530   1.000
    O83     O    0.40273   0.65603   0.57433   1.000
    O84     O    0.36642   0.53676   0.41099   1.000
    O85     O    0.73655   0.92052   0.34059   1.000
    O86     O    0.70394   0.87395   0.45871   1.000
    O87     O    0.26332   0.65889   0.07927   1.000
    O88     O    0.29601   0.54116   0.12630   1.000
    O89     O    0.93005   0.91846   0.57348   1.000
    O90     O    0.96708   0.87492   0.41041   1.000
    O91     O    0.59706   0.42506   0.34387   1.000
    O92     O    0.62989   0.58972   0.46131   1.000
    O93     O    0.26318   0.34006   0.92040   1.000
    O94     O    0.29597   0.45781   0.87342   1.000
    O95     O    0.92992   0.08226   0.42714   1.000
    O96     O    0.96715   0.12611   0.59029   1.000
    O97     O    0.59761   0.57572   0.65543   1.000
    O98     O    0.63035   0.41132   0.53757   1.000
loop_
    _geom_bond_atom_site_label_1
    _geom_bond_atom_site_label_2
    _geom_bond_distance
    _geom_bond_site_symmetry_2
    _ccdc_geom_bond_type
    O87    C54       1.27157      .   S
    O81    C42       1.27750      .   S
    O81    In32      2.32374  1_554   S
    H14    C51       1.08916      .   S
    H8     C39       1.08902      .   S
    O82    C42       1.27929      .   S
    O88    C54       1.28486      .   S
    O88    In32      2.30927  1_554   S
    C54    C52       1.48345      .   S
    C42    C40       1.48265  1_455   S
    C51    C52       1.40706      .   S
    C51    C47       1.38721      .   S
    C39    C40       1.40596      .   S
    C39    C59       1.38880      .   S
    C52    C53       1.40787      .   S
    C40    C41       1.40698      .   S
    H12    C47       1.08980      .   S
    H18    C59       1.08923      .   S
    C47    C48       1.40737      .   S
    C59    C60       1.40674      .   S
    C53    H15       1.08897      .   S
    C53    C49       1.38843      .   S
    C41    H9        1.08916      .   S
    C41    C61       1.38856      .   S
    C48    C49       1.40750      .   S
    C48    C50       1.48365      .   S
    C60    C61       1.40648      .   S
    C60    C62       1.48126      .   S
    H17    C57       1.08900      .   S
    H11    C45       1.08917      .   S
    C49    H13       1.08893      .   S
    C61    H19       1.08905      .   S
    H4     C30       1.08919      .   S
    H22    C67       1.08920      .   S
    O85    C50       1.27147      .   S
    O91    C62       1.27648      .   S
    O91    In0       2.33353      .   S
    C50    O86       1.28490      .   S
    C62    O92       1.28173      .   S
    C57    C45       1.38827      .   S
    C57    C56       1.40701      .   S
    C45    C44       1.40670      .   S
    O90    C58       1.27903      .   S
    O84    C46       1.28110      .   S
    C30    C67       1.38837      .   S
    C30    C31       1.40683      .   S
    C67    C68       1.40615      .   S
    O77    C34       1.27607      .   S
    O95    C70       1.27737      .   S
    O86    In1       2.30849  1_565   S
    C56    C58       1.48256  1_455   S
    C56    C55       1.40635      .   S
    C44    C46       1.48163      .   S
    C44    C43       1.40680      .   S
    C58    O89       1.27738      .   S
    C46    O83       1.27597      .   S
    In0    O83       2.33392      .   S
    In0    O78       2.33232      .   S
    In1    O80       2.30586      .   S
    In1    O89       2.32384  1_545   S
    C34    C31       1.48168      .   S
    C34    O78       1.28121      .   S
    C31    C33       1.40658      .   S
    C70    C68       1.48278  1_655   S
    C70    O96       1.27918      .   S
    C68    C69       1.40706      .   S
    O98    C74       1.28150      .   S
    O80    C38       1.28530      .   S
    C55    C43       1.38834      .   S
    C55    H16       1.08924      .   S
    C43    H10       1.08923      .   S
    C33    C69       1.38854      .   S
    C33    H5        1.08912      .   S
    C69    H23       1.08909      .   S
    H25    C73       1.08906      .   S
    H7     C37       1.08884      .   S
    C74    O97       1.27596      .   S
    C74    C72       1.48209      .   S
    C38    O79       1.27120      .   S
    C38    C36       1.48370      .   S
    C73    C72       1.40675      .   S
    C73    C28       1.38843      .   S
    C37    C36       1.40743      .   S
    C37    C65       1.38819      .   S
    C72    C71       1.40674      .   S
    C36    C35       1.40740      .   S
    H3     C28       1.08926      .   S
    H21    C65       1.08908      .   S
    C28    C27       1.40710      .   S
    C65    C64       1.40803      .   S
    C71    H24       1.08928      .   S
    C71    C26       1.38842      .   S
    C35    H6        1.08916      .   S
    C35    C63       1.38733      .   S
    C27    C26       1.40637      .   S
    C27    C29       1.48280  1_655   S
    C64    C63       1.40731      .   S
    C64    C66       1.48367      .   S
    C26    H2        1.08917      .   S
    C63    H20       1.08915      .   S
    C29    O76       1.27926      .   S
    C29    O75       1.27731      .   S
    C66    O94       1.28509      .   S
    C66    O93       1.27109      .   S
    O94    In32      2.30830      .   S
    O75    In32      2.32550      .   S
    O76    In32      2.35468      .   S
    O77    In0       2.33776      .   S
    O79    In1       2.37362      .   S
    O82    In32      2.35513  1_554   S
    O84    In0       2.34095      .   S
    O85    In1       2.37255  1_565   S
    O87    In32      2.36881  1_554   S
    O90    In1       2.35467  1_565   S
    O92    In0       2.33741      .   S
    O93    In32      2.37030      .   S
    O95    In1       2.32395      .   S
    O96    In1       2.35335      .   S
    O97    In0       2.33835      .   S
    O98    In0       2.33568      .   S
