# CIF file generated by openbabel 2.4.90, see http://openbabel.sf.net
data_I
_chemical_name_common ''
_cell_length_a 12.513
_cell_length_b 14.768
_cell_length_c 14.758
_cell_angle_alpha 120.039
_cell_angle_beta 90.035
_cell_angle_gamma 90.047
_space_group_name_H-M_alt 'P 1'
_space_group_name_Hall 'P 1'
loop_
    _symmetry_equiv_pos_as_xyz
    x,y,z
loop_
    _atom_site_label
    _atom_site_type_symbol
    _atom_site_fract_x
    _atom_site_fract_y
    _atom_site_fract_z
    _atom_site_occupancy
    Zr0     Zr   0.16665   0.49946   0.99971   1.000
    Zr1     Zr   0.49964   0.50022   0.49948   1.000
    Zr2     Zr   0.83329   0.00041   0.50042   1.000
    N3      N    0.83266   0.50831   0.25358   1.000
    N4      N    0.16651   0.74629   0.49182   1.000
    N5      N    0.83273   0.49174   0.74581   1.000
    N6      N    0.16714   0.25404   0.50832   1.000
    N7      N    0.49996   0.74823   0.25158   1.000
    N8      N    0.49991   0.25130   0.74866   1.000
    O9      O    0.63835   0.15150   0.64971   1.000
    O10     O    0.02872   0.84742   0.49400   1.000
    O11     O    0.02903   0.15317   0.50644   1.000
    O12     O    0.63836   0.84853   0.35081   1.000
    O13     O    0.30431   0.64730   0.49394   1.000
    O14     O    0.69477   0.49430   0.64690   1.000
    O15     O    0.30499   0.35284   0.50568   1.000
    O16     O    0.69461   0.50606   0.35231   1.000
    O17     O    0.36151   0.35025   0.84848   1.000
    O18     O    0.97085   0.49354   0.84678   1.000
    O19     O    0.36156   0.64899   0.15141   1.000
    O20     O    0.97081   0.50604   0.15260   1.000
loop_
    _geom_bond_atom_site_label_1
    _geom_bond_atom_site_label_2
    _geom_bond_distance
    _geom_bond_site_symmetry_2
    _ccdc_geom_bond_type
    Zr2    O9        3.29804      .   S
    N8     O9        2.27107      .   S
    Zr2    O10       3.29975  1_645   S
    N4     O10       2.27165      .   S
    Zr2    O11       3.29940  1_655   S
    N6     O11       2.27178      .   S
    Zr2    O12       3.29875  1_545   S
    N7     O12       2.27132      .   S
    Zr1    O13       3.29925      .   S
    N4     O13       2.27186      .   S
    Zr1    O14       3.29946      .   S
    N5     O14       2.27258      .   S
    Zr1    O15       3.29675      .   S
    N6     O15       2.27133      .   S
    Zr1    O16       3.29700      .   S
    N3     O16       2.27147      .   S
    Zr0    O17       3.29756      .   S
    N8     O17       2.27087      .   S
    Zr0    O18       3.30135  1_455   S
    N5     O18       2.27279      .   S
    Zr0    O19       3.29721  1_556   S
    N7     O19       2.27067      .   S
    Zr0    O20       3.30050  1_456   S
    N3     O20       2.27233      .   S
