# CIF file generated by openbabel 2.4.90, see http://openbabel.sf.net
data_I
_chemical_name_common ''
_cell_length_a 12.513
_cell_length_b 14.768
_cell_length_c 14.758
_cell_angle_alpha 120.039
_cell_angle_beta 90.035
_cell_angle_gamma 90.047
_space_group_name_H-M_alt 'P 1'
_space_group_name_Hall 'P 1'
loop_
    _symmetry_equiv_pos_as_xyz
    x,y,z
loop_
    _atom_site_label
    _atom_site_type_symbol
    _atom_site_fract_x
    _atom_site_fract_y
    _atom_site_fract_z
    _atom_site_occupancy
    Zr0     Zr   0.16665   0.49946   0.99971   1.000
    Zr1     Zr   0.49964   0.50022   0.49948   1.000
    Zr2     Zr   0.83329   0.00041   0.50042   1.000
    N3      N    0.83266   0.50831   0.25358   1.000
    O4      O    0.97542   0.48568   0.14716   1.000
    O5      O    0.96620   0.52640   0.15804   1.000
    O6      O    0.69050   0.48547   0.33763   1.000
    O7      O    0.69871   0.52664   0.36699   1.000
    N8      N    0.16651   0.74629   0.49182   1.000
    O9      O    0.30885   0.66220   0.51436   1.000
    O10     O    0.03335   0.84197   0.47362   1.000
    O11     O    0.02409   0.85286   0.51438   1.000
    O12     O    0.29977   0.63239   0.47353   1.000
    N13     N    0.83273   0.49174   0.74581   1.000
    O14     O    0.96620   0.47316   0.84129   1.000
    O15     O    0.97551   0.51391   0.85227   1.000
    O16     O    0.69068   0.51485   0.66163   1.000
    O17     O    0.69886   0.47375   0.63217   1.000
    N18     N    0.16714   0.25404   0.50832   1.000
    O19     O    0.30913   0.33805   0.48515   1.000
    O20     O    0.30086   0.36764   0.52620   1.000
    O21     O    0.03368   0.15865   0.52684   1.000
    O22     O    0.02437   0.14769   0.48605   1.000
    N23     N    0.49996   0.74823   0.25158   1.000
    O24     O    0.35747   0.66370   0.14553   1.000
    O25     O    0.64244   0.85435   0.33604   1.000
    O26     O    0.63428   0.84271   0.36557   1.000
    O27     O    0.36564   0.63427   0.15729   1.000
    N28     N    0.49991   0.25130   0.74866   1.000
    O29     O    0.35741   0.33553   0.85436   1.000
    O30     O    0.64243   0.14567   0.66447   1.000
    O31     O    0.36561   0.36497   0.84261   1.000
    O32     O    0.63426   0.15733   0.63495   1.000
loop_
    _geom_bond_atom_site_label_1
    _geom_bond_atom_site_label_2
    _geom_bond_distance
    _geom_bond_site_symmetry_2
    _ccdc_geom_bond_type
    N3     O4        2.29087      .   S
    Zr0    O4        3.30933  1_456   S
    N3     O5        2.28715      .   S
    Zr0    O5        3.31468  1_456   S
    N3     O6        2.28841      .   S
    Zr1    O6        3.30814      .   S
    N3     O7        2.28785      .   S
    Zr1    O7        3.30887      .   S
    N8     O9        2.28941      .   S
    Zr1    O9        3.30984      .   S
    N8     O10       2.28665      .   S
    Zr2    O10       3.31380  1_645   S
    N8     O11       2.29004      .   S
    Zr2    O11       3.30873  1_645   S
    N8     O12       2.28767      .   S
    Zr1    O12       3.31166      .   S
    N13    O14       2.28803      .   S
    Zr0    O14       3.31512  1_455   S
    N13    O15       2.29088      .   S
    Zr0    O15       3.31058  1_455   S
    N13    O16       2.28957      .   S
    Zr1    O16       3.31084      .   S
    N13    O17       2.28890      .   S
    Zr1    O17       3.31107      .   S
    N18    O19       2.28790      .   S
    Zr1    O19       3.30855      .   S
    N18    O20       2.28807      .   S
    Zr1    O20       3.30795      .   S
    N18    O21       2.28694      .   S
    Zr2    O21       3.31327  1_655   S
    N18    O22       2.29001      .   S
    Zr2    O22       3.30855  1_655   S
    N23    O24       2.28545      .   S
    Zr0    O24       3.31273  1_556   S
    N23    O25       2.28591      .   S
    Zr2    O25       3.31459  1_545   S
    N23    O26       2.29017      .   S
    Zr2    O26       3.30598  1_545   S
    N23    O27       2.28935      .   S
    Zr0    O27       3.30478  1_556   S
    N28    O29       2.28570      .   S
    Zr0    O29       3.31314      .   S
    N28    O30       2.28567      .   S
    Zr2    O30       3.31405      .   S
    N28    O31       2.28948      .   S
    Zr0    O31       3.30505      .   S
    N28    O32       2.28993      .   S
    Zr2    O32       3.30511      .   S
