# CIF file generated by openbabel 2.4.90, see http://openbabel.sf.net
data_I
_chemical_name_common ''
_cell_length_a 12.575
_cell_length_b 12.867
_cell_length_c 14.514
_cell_angle_alpha 88.632
_cell_angle_beta 88.664
_cell_angle_gamma 86.105
_space_group_name_H-M_alt 'P 1'
_space_group_name_Hall 'P 1'
loop_
    _symmetry_equiv_pos_as_xyz
    x,y,z
loop_
    _atom_site_label
    _atom_site_type_symbol
    _atom_site_fract_x
    _atom_site_fract_y
    _atom_site_fract_z
    _atom_site_occupancy
    N0      N    0.14248   0.53562   0.79694   1.000
    N1      N    0.85852   0.46379   0.20190   1.000
    N2      N    0.53323   0.14339   0.29844   1.000
    N3      N    0.24298   0.75831   0.25036   1.000
    N4      N    0.46552   0.85763   0.70155   1.000
    N5      N    0.75835   0.24317   0.74996   1.000
    Zr6     Zr   0.97219   0.36890   0.77442   1.000
    O7      O    0.93744   0.39573   0.89868   1.000
    Zr8     Zr   0.61134   0.38649   0.25015   1.000
    O9      O    0.50437   0.49472   0.25027   1.000
    Zr10    Zr   0.38885   0.61374   0.74987   1.000
    O11     O    0.49614   0.50586   0.74988   1.000
    Zr12    Zr   0.37426   0.96851   0.27379   1.000
    O13     O    0.39997   0.93462   0.39807   1.000
    Zr14    Zr   0.02767   0.63127   0.22307   1.000
    O15     O    0.06267   0.60436   0.09923   1.000
    Zr16    Zr   0.62567   0.03152   0.72606   1.000
    O17     O    0.59968   0.06565   0.60179   1.000
    O18     O    0.58657   0.31571   0.25331   1.000
    O19     O    0.68344   0.41066   0.24701   1.000
    O20     O    0.31706   0.58928   0.75264   1.000
    O21     O    0.41316   0.68479   0.74671   1.000
    O22     O    0.57761   0.98054   0.73031   1.000
    O23     O    0.67437   0.08521   0.73276   1.000
    O24     O    0.02186   0.41894   0.76949   1.000
    O25     O    0.42194   0.01984   0.26956   1.000
    O26     O    0.32591   0.91517   0.26726   1.000
    O27     O    0.91792   0.32257   0.76758   1.000
    O28     O    0.08231   0.67792   0.23084   1.000
    O29     O    0.97843   0.58097   0.22848   1.000
loop_
    _geom_bond_atom_site_label_1
    _geom_bond_atom_site_label_2
    _geom_bond_distance
    _geom_bond_site_symmetry_2
    _ccdc_geom_bond_type
    Zr6    O7        1.88010      .   S
    N1     O7        4.58079  1_554   S
    Zr8    O9        1.86941      .   S
    N3     O9        4.55986      .   S
    Zr10   O11       1.86890      .   S
    N5     O11       4.55869      .   S
    Zr12   O13       1.87591      .   S
    N4     O13       4.57295      .   S
    Zr14   O15       1.87514      .   S
    N0     O15       4.57155  1_556   S
    Zr16   O17       1.87697      .   S
    N2     O17       4.57497      .   S
    Zr8    O18       0.98199      .   S
    N2     O18       2.43051      .   S
    Zr8    O19       0.97802      .   S
    N1     O19       2.42057      .   S
    Zr10   O20       0.97575      .   S
    N0     O20       2.41420      .   S
    Zr10   O21       0.98310      .   S
    N4     O21       2.43281      .   S
    Zr16   O22       0.92168  1_545   S
    N4     O22       2.24142      .   S
    Zr16   O23       0.96182      .   S
    N5     O23       2.37423      .   S
    N0     O24       2.25377      .   S
    Zr6    O24       0.92744  1_655   S
    Zr12   O25       0.92174  1_565   S
    N2     O25       2.24118      .   S
    Zr12   O26       0.95512      .   S
    N3     O26       2.35424      .   S
    Zr6    O27       0.94458      .   S
    N5     O27       2.33464      .   S
    Zr14   O28       0.95283      .   S
    N3     O28       2.35733      .   S
    Zr14   O29       0.92644  1_455   S
    N1     O29       2.24935      .   S
