# CIF file generated by openbabel 2.4.90, see http://openbabel.sf.net
data_I
_chemical_name_common ''
_cell_length_a 12.575
_cell_length_b 12.867
_cell_length_c 14.514
_cell_angle_alpha 88.632
_cell_angle_beta 88.664
_cell_angle_gamma 86.105
_space_group_name_H-M_alt 'P 1'
_space_group_name_Hall 'P 1'
loop_
    _symmetry_equiv_pos_as_xyz
    x,y,z
loop_
    _atom_site_label
    _atom_site_type_symbol
    _atom_site_fract_x
    _atom_site_fract_y
    _atom_site_fract_z
    _atom_site_occupancy
    Zr0     Zr   0.97219   0.36890   0.77442   1.000
    Zr1     Zr   0.62567   0.03152   0.72606   1.000
    Zr2     Zr   0.02767   0.63127   0.22307   1.000
    Zr3     Zr   0.37426   0.96851   0.27379   1.000
    Zr4     Zr   0.38885   0.61374   0.74987   1.000
    Zr5     Zr   0.61134   0.38649   0.25015   1.000
    N6      N    0.14248   0.53562   0.79694   1.000
    O7      O    0.08431   0.48146   0.78102   1.000
    O8      O    0.05875   0.45650   0.74810   1.000
    O9      O    0.26243   0.56886   0.73713   1.000
    O10     O    0.22810   0.56076   0.77367   1.000
    O11     O    0.09767   0.57746   0.97540   1.000
    N12     N    0.85852   0.46379   0.20190   1.000
    O13     O    0.91632   0.51825   0.21742   1.000
    O14     O    0.94207   0.54307   0.25038   1.000
    O15     O    0.73843   0.43078   0.26221   1.000
    O16     O    0.77264   0.43890   0.22553   1.000
    O17     O    0.90270   0.42255   0.02293   1.000
    N18     N    0.53323   0.14339   0.29844   1.000
    O19     O    0.45730   0.05828   0.24886   1.000
    O20     O    0.56532   0.26188   0.23816   1.000
    O21     O    0.48193   0.08407   0.28182   1.000
    O22     O    0.55827   0.22799   0.27478   1.000
    O23     O    0.57368   0.09978   0.47752   1.000
    N24     N    0.24298   0.75831   0.25036   1.000
    O25     O    0.10985   0.72775   0.23550   1.000
    O26     O    0.27398   0.88825   0.26411   1.000
    O27     O    0.16405   0.72137   0.24174   1.000
    O28     O    0.28112   0.83540   0.25736   1.000
    O29     O    0.39739   0.60296   0.25039   1.000
    N30     N    0.46552   0.85763   0.70155   1.000
    O31     O    0.44091   0.77279   0.72523   1.000
    O32     O    0.42568   0.90074   0.52235   1.000
    O33     O    0.54190   0.94246   0.75103   1.000
    O34     O    0.43404   0.73887   0.76187   1.000
    O35     O    0.51720   0.91667   0.71808   1.000
    N36     N    0.75835   0.24317   0.74996   1.000
    O37     O    0.71949   0.16535   0.74274   1.000
    O38     O    0.89075   0.27306   0.76391   1.000
    O39     O    0.72663   0.11245   0.73618   1.000
    O40     O    0.83656   0.27942   0.75755   1.000
    O41     O    0.60343   0.39797   0.74989   1.000
loop_
    _geom_bond_atom_site_label_1
    _geom_bond_atom_site_label_2
    _geom_bond_distance
    _geom_bond_site_symmetry_2
    _ccdc_geom_bond_type
    N6     O7        1.07651      .   S
    Zr0    O7        2.09405  1_655   S
    N6     O8        1.69192      .   S
    Zr0    O8        1.65162  1_655   S
    N6     O9        1.79451      .   S
    Zr4    O9        1.74319      .   S
    N6     O10       1.18452      .   S
    Zr4    O10       2.19399      .   S
    N6     O11       2.69693      .   S
    Zr2    O11       3.75028  1_554   S
    N12    O13       1.07444      .   S
    Zr2    O13       2.09044  1_455   S
    N12    O14       1.68930      .   S
    Zr2    O14       1.65181  1_455   S
    N12    O15       1.79857      .   S
    Zr5    O15       1.74674      .   S
    N12    O16       1.18783      .   S
    Zr5    O16       2.19937      .   S
    N12    O17       2.70121      .   S
    Zr0    O17       3.76020  1_556   S
    N18    O19       1.68542      .   S
    Zr3    O19       1.63757  1_565   S
    N18    O20       1.80450      .   S
    Zr5    O20       1.75496      .   S
    N18    O21       1.06765      .   S
    Zr3    O21       2.08490  1_565   S
    N18    O22       1.19409      .   S
    Zr5    O22       2.20700      .   S
    N18    O23       2.69853      .   S
    Zr1    O23       3.75394      .   S
    N24    O25       1.76475      .   S
    Zr2    O25       1.68371      .   S
    N24    O26       1.75936      .   S
    Zr3    O26       1.69362      .   S
    N24    O27       1.13989      .   S
    Zr2    O27       2.15996      .   S
    N24    O28       1.13839      .   S
    Zr3    O28       2.16032      .   S
    N24    O29       2.69046      .   S
    Zr5    O29       3.73882      .   S
    N30    O31       1.19533      .   S
    Zr4    O31       2.20914      .   S
    N30    O32       2.69757      .   S
    Zr3    O32       3.75182      .   S
    N30    O33       1.68577      .   S
    Zr1    O33       1.63719  1_545   S
    N30    O34       1.80565      .   S
    Zr4    O34       1.75723      .   S
    N30    O35       1.06765      .   S
    Zr1    O35       2.08507  1_545   S
    N36    O37       1.15172      .   S
    Zr1    O37       2.17365      .   S
    N36    O38       1.75139      .   S
    Zr0    O38       1.66756      .   S
    N36    O39       1.77177      .   S
    Zr1    O39       1.70687      .   S
    N36    O40       1.12547      .   S
    Zr0    O40       2.14346      .   S
    N36    O41       2.68980      .   S
    Zr4    O41       3.73780      .   S
