# CIF file generated by openbabel 2.4.90, see http://openbabel.sf.net
data_I
_chemical_name_common ''
_cell_length_a 12.575
_cell_length_b 12.867
_cell_length_c 14.514
_cell_angle_alpha 88.632
_cell_angle_beta 88.664
_cell_angle_gamma 86.105
_space_group_name_H-M_alt 'P 1'
_space_group_name_Hall 'P 1'
loop_
    _symmetry_equiv_pos_as_xyz
    x,y,z
loop_
    _atom_site_label
    _atom_site_type_symbol
    _atom_site_fract_x
    _atom_site_fract_y
    _atom_site_fract_z
    _atom_site_occupancy
    N0      N    0.14248   0.53562   0.79694   1.000
    N1      N    0.85852   0.46379   0.20190   1.000
    N2      N    0.53323   0.14339   0.29844   1.000
    N3      N    0.24298   0.75831   0.25036   1.000
    N4      N    0.46552   0.85763   0.70155   1.000
    N5      N    0.75835   0.24317   0.74996   1.000
    Zr6     Zr   0.97219   0.36890   0.77442   1.000
    O7      O    0.93744   0.39573   0.89868   1.000
    O8      O    0.02825   0.42518   0.77772   1.000
    O9      O    0.01547   0.41270   0.76126   1.000
    O10     O    0.93147   0.32098   0.76917   1.000
    O11     O    0.90437   0.32416   0.76599   1.000
    Zr12    Zr   0.61134   0.38649   0.25015   1.000
    O13     O    0.50437   0.49472   0.25027   1.000
    O14     O    0.67489   0.40863   0.25618   1.000
    O15     O    0.69199   0.41269   0.23784   1.000
    O16     O    0.58481   0.30724   0.26247   1.000
    O17     O    0.58833   0.32418   0.24416   1.000
    Zr18    Zr   0.38885   0.61374   0.74987   1.000
    O19     O    0.32564   0.59130   0.74350   1.000
    O20     O    0.30848   0.58725   0.76177   1.000
    O21     O    0.41488   0.69326   0.73755   1.000
    O22     O    0.41145   0.67631   0.75587   1.000
    O23     O    0.49614   0.50586   0.74988   1.000
    Zr24    Zr   0.37426   0.96851   0.27379   1.000
    O25     O    0.32769   0.90195   0.26557   1.000
    O26     O    0.41578   0.01339   0.26132   1.000
    O27     O    0.42810   0.02629   0.27780   1.000
    O28     O    0.32412   0.92838   0.26895   1.000
    O29     O    0.39997   0.93462   0.39807   1.000
    Zr30    Zr   0.02767   0.63127   0.22307   1.000
    O31     O    0.06267   0.60436   0.09923   1.000
    O32     O    0.09586   0.67632   0.23240   1.000
    O33     O    0.97199   0.57476   0.22025   1.000
    O34     O    0.98487   0.58717   0.23672   1.000
    O35     O    0.06876   0.67951   0.22928   1.000
    Zr36    Zr   0.62567   0.03152   0.72606   1.000
    O37     O    0.67258   0.09843   0.73440   1.000
    O38     O    0.67615   0.07198   0.73112   1.000
    O39     O    0.59968   0.06565   0.60179   1.000
    O40     O    0.57143   0.97409   0.72207   1.000
    O41     O    0.58379   0.98699   0.73854   1.000
loop_
    _geom_bond_atom_site_label_1
    _geom_bond_atom_site_label_2
    _geom_bond_distance
    _geom_bond_site_symmetry_2
    _ccdc_geom_bond_type
    Zr6    O7        1.88010      .   S
    N1     O7        4.58079  1_554   S
    Zr6    O8        1.04702  1_655   S
    N0     O8        2.11551      .   S
    Zr6    O9        0.82581  1_655   S
    N0     O9        2.39615      .   S
    Zr6    O10       0.83378      .   S
    N5     O10       2.48134      .   S
    Zr6    O11       1.07173      .   S
    N5     O11       2.19165      .   S
    Zr12   O13       1.86941      .   S
    N3     O13       4.55986      .   S
    Zr12   O14       0.87337      .   S
    N1     O14       2.56279      .   S
    Zr12   O15       1.09968      .   S
    N1     O15       2.28241      .   S
    Zr12   O16       1.10350      .   S
    N2     O16       2.29248      .   S
    Zr12   O17       0.87748      .   S
    N2     O17       2.57262      .   S
    Zr18   O19       0.87160      .   S
    N0     O19       2.55616      .   S
    Zr18   O20       1.09700      .   S
    N0     O20       2.27632      .   S
    Zr18   O21       1.10457      .   S
    N4     O21       2.29481      .   S
    Zr18   O22       0.87862      .   S
    N4     O22       2.57489      .   S
    Zr18   O23       1.86890      .   S
    N5     O23       4.55869      .   S
    Zr24   O25       1.08016      .   S
    N3     O25       2.21301      .   S
    Zr24   O26       0.81879  1_565   S
    N2     O26       2.38436      .   S
    Zr24   O27       1.04245  1_565   S
    N2     O27       2.10202      .   S
    Zr24   O28       0.84681      .   S
    N3     O28       2.49936      .   S
    Zr24   O29       1.87591      .   S
    N4     O29       4.57295      .   S
    Zr30   O31       1.87514      .   S
    N0     O31       4.57155  1_556   S
    Zr30   O32       1.07998      .   S
    N3     O32       2.21452      .   S
    Zr30   O33       1.04522  1_455   S
    N1     O33       2.11153      .   S
    Zr30   O34       0.82591  1_455   S
    N1     O34       2.39136      .   S
    Zr30   O35       0.84185      .   S
    N3     O35       2.50385      .   S
    Zr36   O37       1.08683      .   S
    N5     O37       2.23317      .   S
    Zr36   O38       0.85344      .   S
    N5     O38       2.51918      .   S
    Zr36   O39       1.87697      .   S
    N2     O39       4.57497      .   S
    Zr36   O40       1.04253  1_545   S
    N4     O40       2.10216      .   S
    Zr36   O41       0.81860  1_545   S
    N4     O41       2.38471      .   S
