# CIF file generated by openbabel 2.4.90, see http://openbabel.sf.net
data_I
_chemical_name_common ''
_cell_length_a 12.575
_cell_length_b 12.867
_cell_length_c 14.514
_cell_angle_alpha 88.632
_cell_angle_beta 88.664
_cell_angle_gamma 86.105
_space_group_name_H-M_alt 'P 1'
_space_group_name_Hall 'P 1'
loop_
    _symmetry_equiv_pos_as_xyz
    x,y,z
loop_
    _atom_site_label
    _atom_site_type_symbol
    _atom_site_fract_x
    _atom_site_fract_y
    _atom_site_fract_z
    _atom_site_occupancy
    C0      C    0.97219   0.36890   0.77442   1.000
    C1      C    0.62567   0.03152   0.72606   1.000
    C2      C    0.02767   0.63127   0.22307   1.000
    C3      C    0.37426   0.96851   0.27379   1.000
    C4      C    0.38885   0.61374   0.74987   1.000
    C5      C    0.61134   0.38649   0.25015   1.000
    C6      C    0.17629   0.45389   0.50999   1.000
    C7      C    0.23190   0.55020   0.11611   1.000
    C8      C    0.28707   0.51282   0.95462   1.000
    C9      C    0.97264   0.63197   0.87289   1.000
    C10     C    0.93105   0.66858   0.03874   1.000
    C11     C    0.59353   0.55912   0.64174   1.000
    C12     C    0.74092   0.42146   0.64075   1.000
    C13     C    0.54451   0.82800   0.98969   1.000
    C14     C    0.46101   0.77028   0.38170   1.000
    C15     C    0.49505   0.71626   0.54402   1.000
    C16     C    0.36109   0.01993   0.62445   1.000
    C17     C    0.32902   0.06098   0.45791   1.000
    C18     C    0.43528   0.41108   0.85742   1.000
    C19     C    0.57054   0.26214   0.85919   1.000
    C20     C    0.82789   0.54156   0.49003   1.000
    C21     C    0.76754   0.45074   0.88248   1.000
    C22     C    0.71262   0.48751   0.04413   1.000
    C23     C    0.02750   0.36888   0.12505   1.000
    C24     C    0.06867   0.33255   0.95914   1.000
    C25     C    0.40567   0.44047   0.35745   1.000
    C26     C    0.25777   0.57775   0.35756   1.000
    C27     C    0.45043   0.17540   0.01119   1.000
    C28     C    0.53848   0.22949   0.61824   1.000
    C29     C    0.50408   0.28376   0.45606   1.000
    C30     C    0.63905   0.98067   0.37498   1.000
    C31     C    0.67135   0.93932   0.54144   1.000
    C32     C    0.56647   0.59038   0.14440   1.000
    C33     C    0.43053   0.73883   0.14181   1.000
    C34     C    0.00222   0.00000   0.74889   1.000
    C35     C    0.00000   0.01046   0.25347   1.000
    C36     C    0.15241   0.53489   0.80412   1.000
    C37     C    0.12203   0.47798   0.66787   1.000
    C38     C    0.21921   0.52331   0.66456   1.000
    C39     C    0.06305   0.42437   0.59921   1.000
    C40     C    0.29565   0.53943   0.58715   1.000
    C41     C    0.17622   0.56663   0.06037   1.000
    C42     C    0.20653   0.54488   0.96983   1.000
    C43     C    0.13182   0.56437   0.90023   1.000
    C44     C    0.03154   0.61154   0.92521   1.000
    C45     C    0.00802   0.63204   0.01707   1.000
    C46     C    0.91019   0.16605   0.75473   1.000
    C47     C    0.02697   0.15408   0.76612   1.000
    C48     C    0.59284   0.49391   0.69086   1.000
    C49     C    0.67511   0.41634   0.69031   1.000
    C50     C    0.46485   0.84717   0.69465   1.000
    C51     C    0.52051   0.87953   0.83125   1.000
    C52     C    0.47772   0.78280   0.83446   1.000
    C53     C    0.57292   0.93901   0.90011   1.000
    C54     C    0.46379   0.70783   0.91208   1.000
    C55     C    0.44075   0.82397   0.43736   1.000
    C56     C    0.46058   0.79429   0.52836   1.000
    C57     C    0.43624   0.86639   0.59795   1.000
    C58     C    0.38583   0.96328   0.57232   1.000
    C59     C    0.36766   0.98643   0.47999   1.000
    C60     C    0.83498   0.09246   0.74636   1.000
    C61     C    0.84647   0.00000   0.73415   1.000
    C62     C    0.50233   0.40923   0.80856   1.000
    C63     C    0.57855   0.32593   0.80946   1.000
    C64     C    0.84787   0.46528   0.19457   1.000
    C65     C    0.87956   0.52083   0.33111   1.000
    C66     C    0.78248   0.47526   0.33471   1.000
    C67     C    0.93928   0.57361   0.39989   1.000
    C68     C    0.70671   0.45849   0.41252   1.000
    C69     C    0.82343   0.43429   0.93807   1.000
    C70     C    0.79323   0.45570   0.02874   1.000
    C71     C    0.86812   0.43631   0.09821   1.000
    C72     C    0.96838   0.38930   0.07290   1.000
    C73     C    0.99173   0.36905   0.98095   1.000
    C74     C    0.08967   0.83389   0.24503   1.000
    C75     C    0.00000   0.84588   0.23397   1.000
    C76     C    0.40682   0.50598   0.30867   1.000
    C77     C    0.32435   0.58337   0.30885   1.000
    C78     C    0.53460   0.15341   0.30518   1.000
    C79     C    0.47759   0.12197   0.16883   1.000
    C80     C    0.52047   0.21865   0.16572   1.000
    C81     C    0.42481   0.06279   0.10001   1.000
    C82     C    0.53386   0.29412   0.08836   1.000
    C83     C    0.55894   0.17599   0.56248   1.000
    C84     C    0.53894   0.20583   0.47154   1.000
    C85     C    0.56350   0.13397   0.40179   1.000
    C86     C    0.61420   0.03715   0.42723   1.000
    C87     C    0.63251   0.01384   0.51953   1.000
    C88     C    0.16481   0.90748   0.25391   1.000
    C89     C    0.15326   0.01996   0.26720   1.000
    C90     C    0.49864   0.59170   0.19244   1.000
    C91     C    0.42222   0.67481   0.19122   1.000
    C92     C    0.75232   0.24585   0.75038   1.000
    C93     C    0.66778   0.32970   0.75001   1.000
    C94     C    0.24758   0.75417   0.24893   1.000
    C95     C    0.33215   0.67036   0.24960   1.000
    C96     C    0.08010   0.48570   0.75578   1.000
    C97     C    0.23860   0.55807   0.75094   1.000
    C98     C    0.07803   0.60732   0.08464   1.000
    C99     C    0.85734   0.26242   0.75587   1.000
    C100    C    0.51208   0.91987   0.74318   1.000
    C101    C    0.44374   0.76213   0.74794   1.000
    C102    C    0.39744   0.91919   0.41254   1.000
    C103    C    0.73558   0.14352   0.74496   1.000
    C104    C    0.92055   0.51416   0.24282   1.000
    C105    C    0.76218   0.44151   0.24816   1.000
    C106    C    0.92157   0.39373   0.91348   1.000
    C107    C    0.14259   0.73759   0.24316   1.000
    C108    C    0.48701   0.08098   0.25662   1.000
    C109    C    0.55528   0.23872   0.25210   1.000
    C110    C    0.60259   0.08084   0.58713   1.000
    C111    C    0.26426   0.85647   0.25494   1.000
    C112    C    0.50817   0.49179   0.74978   1.000
    C113    C    0.49227   0.50875   0.25068   1.000
    C114    C    0.97784   0.38585   0.62408   1.000
    C115    C    0.10204   0.41763   0.51517   1.000
    C116    C    0.37589   0.59044   0.60478   1.000
    C117    C    0.27671   0.50174   0.50933   1.000
    C118    C    0.07411   0.23699   0.78129   1.000
    C119    C    0.07331   0.06322   0.76159   1.000
    C120    C    0.61091   0.02307   0.87495   1.000
    C121    C    0.57929   0.90218   0.98442   1.000
    C122    C    0.41627   0.62649   0.89452   1.000
    C123    C    0.50014   0.72887   0.99022   1.000
    C124    C    0.76416   0.93194   0.71874   1.000
    C125    C    0.94093   0.93262   0.73802   1.000
    C126    C    0.02358   0.61341   0.37464   1.000
    C127    C    0.90189   0.57815   0.48458   1.000
    C128    C    0.62534   0.40904   0.39489   1.000
    C129    C    0.72729   0.49408   0.49078   1.000
    C130    C    0.92575   0.76308   0.21821   1.000
    C131    C    0.92645   0.93660   0.23938   1.000
    C132    C    0.38846   0.97783   0.12477   1.000
    C133    C    0.41622   0.10100   0.01623   1.000
    C134    C    0.58349   0.37425   0.10560   1.000
    C135    C    0.49528   0.27459   0.01073   1.000
    C136    C    0.23571   0.06788   0.28194   1.000
    C137    C    0.05860   0.06702   0.26511   1.000
    O138    O    0.51457   0.28436   0.04954   1.000
    O139    O    0.43333   0.13820   0.01371   1.000
    O140    O    0.42052   0.08189   0.05812   1.000
    O141    O    0.96954   0.65031   0.02790   1.000
    O142    O    0.04303   0.61968   0.05085   1.000
    O143    O    0.01978   0.62179   0.97114   1.000
    O144    O    0.75293   0.47161   0.03643   1.000
    O145    O    0.83067   0.44601   0.06347   1.000
    O146    O    0.80833   0.44500   0.98340   1.000
    O147    O    0.12712   0.58697   0.07250   1.000
    O148    O    0.20406   0.55842   0.08824   1.000
    O149    O    0.19137   0.55575   0.01510   1.000
    O150    O    0.91825   0.41280   0.08556   1.000
    O151    O    0.99794   0.37909   0.09898   1.000
    O152    O    0.98006   0.37917   0.02693   1.000
    O153    O    0.05285   0.61930   0.15385   1.000
    O154    O    0.55867   0.33419   0.09698   1.000
    O155    O    0.52716   0.25638   0.12704   1.000
    O156    O    0.85799   0.45079   0.14639   1.000
    O157    O    0.40664   0.02031   0.11239   1.000
    O158    O    0.45120   0.09238   0.13442   1.000
    O159    O    0.59741   0.38037   0.17788   1.000
    O160    O    0.38136   0.97317   0.19928   1.000
    O161    O    0.42637   0.70682   0.16651   1.000
    O162    O    0.53255   0.59104   0.16842   1.000
    O163    O    0.49903   0.17031   0.16727   1.000
    O164    O    0.53787   0.22868   0.20891   1.000
    O165    O    0.48230   0.10147   0.21273   1.000
    O166    O    0.46043   0.63326   0.19183   1.000
    O167    O    0.37718   0.67258   0.22041   1.000
    O168    O    0.49545   0.55022   0.22156   1.000
    O169    O    0.88421   0.48972   0.21869   1.000
    O170    O    0.80503   0.45340   0.22137   1.000
    O171    O    0.97671   0.69718   0.22064   1.000
    O172    O    0.96288   0.80448   0.22609   1.000
    O173    O    0.97411   0.57272   0.23294   1.000
    O174    O    0.08513   0.68443   0.23311   1.000
    O175    O    0.02563   0.62234   0.29885   1.000
    O176    O    0.96323   0.89124   0.23668   1.000
    O177    O    0.04484   0.83989   0.23950   1.000
    O178    O    0.90006   0.51750   0.28696   1.000
    O179    O    0.11613   0.78574   0.24409   1.000
    O180    O    0.19508   0.74588   0.24605   1.000
    O181    O    0.12724   0.87068   0.24947   1.000
    O182    O    0.68676   0.41400   0.24916   1.000
    O183    O    0.77233   0.45839   0.29144   1.000
    O184    O    0.28986   0.71227   0.24927   1.000
    O185    O    0.25592   0.80532   0.25194   1.000
    O186    O    0.32825   0.62686   0.27923   1.000
    O187    O    0.55181   0.44762   0.25042   1.000
    O188    O    0.58331   0.31260   0.25112   1.000
    O189    O    0.61834   0.39776   0.32252   1.000
    O190    O    0.44955   0.50736   0.27968   1.000
    O191    O    0.54494   0.19606   0.27864   1.000
    O192    O    0.02930   0.03874   0.25929   1.000
    O193    O    0.21453   0.88197   0.25443   1.000
    O194    O    0.15904   0.96372   0.26055   1.000
    O195    O    0.31926   0.91249   0.26436   1.000
    O196    O    0.43064   0.02474   0.26520   1.000
    O197    O    0.51080   0.11720   0.28090   1.000
    O198    O    0.10593   0.04349   0.26615   1.000
    O199    O    0.19448   0.04392   0.27457   1.000
    O200    O    0.30498   0.01819   0.27786   1.000
    O201    O    0.38585   0.94385   0.34316   1.000
    O202    O    0.54905   0.14369   0.35348   1.000
    O203    O    0.36558   0.54467   0.30876   1.000
    O204    O    0.40625   0.47323   0.33306   1.000
    O205    O    0.29106   0.58056   0.33321   1.000
    O206    O    0.83102   0.49805   0.33291   1.000
    O207    O    0.90942   0.54722   0.36550   1.000
    O208    O    0.74459   0.46688   0.37362   1.000
    O209    O    0.98143   0.59351   0.38726   1.000
    O210    O    0.62662   0.00891   0.40111   1.000
    O211    O    0.45088   0.79712   0.40953   1.000
    O212    O    0.66602   0.43377   0.40371   1.000
    O213    O    0.92058   0.57588   0.44224   1.000
    O214    O    0.58885   0.08556   0.41451   1.000
    O215    O    0.55122   0.16990   0.43666   1.000
    O216    O    0.71700   0.47629   0.45165   1.000
    O217    O    0.41910   0.87158   0.42495   1.000
    O218    O    0.38255   0.95281   0.44626   1.000
    O219    O    0.62335   0.02549   0.47338   1.000
    O220    O    0.45066   0.80913   0.48286   1.000
    O221    O    0.52151   0.24479   0.46380   1.000
    O222    O    0.34834   0.02371   0.46895   1.000
    O223    O    0.54894   0.19091   0.51701   1.000
    O224    O    0.37674   0.97486   0.52615   1.000
    O225    O    0.86489   0.55985   0.48731   1.000
    O226    O    0.28618   0.52058   0.54824   1.000
    O227    O    0.13917   0.43576   0.51258   1.000
    O228    O    0.08255   0.42100   0.55719   1.000
    O229    O    0.65193   0.97658   0.53048   1.000
    O230    O    0.61755   0.04734   0.55333   1.000
    O231    O    0.47782   0.75527   0.53619   1.000
    O232    O    0.44841   0.83034   0.56316   1.000
    O233    O    0.58077   0.12842   0.57481   1.000
    O234    O    0.54871   0.20274   0.59036   1.000
    O235    O    0.41103   0.91483   0.58514   1.000
    O236    O    0.37346   0.99160   0.59839   1.000
    O237    O    0.61413   0.05618   0.65659   1.000
    O238    O    0.33577   0.56493   0.59596   1.000
    O239    O    0.25743   0.53137   0.62586   1.000
    O240    O    0.45054   0.85678   0.64630   1.000
    O241    O    0.02045   0.40511   0.61165   1.000
    O242    O    0.09254   0.45117   0.63354   1.000
    O243    O    0.38237   0.60209   0.67732   1.000
    O244    O    0.97502   0.37738   0.69925   1.000
    O245    O    0.70802   0.41890   0.66553   1.000
    O246    O    0.59318   0.52652   0.66630   1.000
    O247    O    0.17062   0.50064   0.66622   1.000
    O248    O    0.22890   0.54069   0.70775   1.000
    O249    O    0.10106   0.48184   0.71183   1.000
    O250    O    0.63398   0.45513   0.69058   1.000
    O251    O    0.67145   0.37302   0.72016   1.000
    O252    O    0.55051   0.49285   0.72032   1.000
    O253    O    0.48846   0.88352   0.71891   1.000
    O254    O    0.45429   0.80465   0.72129   1.000
    O255    O    0.69492   0.98173   0.72240   1.000
    O256    O    0.80531   0.96597   0.72644   1.000
    O257    O    0.56888   0.97570   0.73462   1.000
    O258    O    0.68063   0.08752   0.73551   1.000
    O259    O    0.61829   0.02729   0.80051   1.000
    O260    O    0.89370   0.96631   0.73608   1.000
    O261    O    0.84072   0.04623   0.74026   1.000
    O262    O    0.97158   0.96631   0.74345   1.000
    O263    O    0.51629   0.89970   0.78721   1.000
    O264    O    0.78528   0.11799   0.74566   1.000
    O265    O    0.74395   0.19469   0.74767   1.000
    O266    O    0.87259   0.12926   0.75055   1.000
    O267    O    0.41630   0.68794   0.74891   1.000
    O268    O    0.46073   0.77247   0.79120   1.000
    O269    O    0.44851   0.55277   0.74982   1.000
    O270    O    0.50525   0.45051   0.77917   1.000
    O271    O    0.31372   0.58591   0.75041   1.000
    O272    O    0.40256   0.62012   0.82219   1.000
    O273    O    0.71005   0.28777   0.75019   1.000
    O274    O    0.62317   0.32781   0.77974   1.000
    O275    O    0.80483   0.25413   0.75312   1.000
    O276    O    0.19550   0.54648   0.77753   1.000
    O277    O    0.88377   0.21424   0.75530   1.000
    O278    O    0.96858   0.16007   0.76043   1.000
    O279    O    0.02614   0.42730   0.76510   1.000
    O280    O    0.11625   0.51030   0.77995   1.000
    O281    O    0.91477   0.31566   0.76515   1.000
    O282    O    0.05014   0.10865   0.76386   1.000
    O283    O    0.05054   0.19553   0.77371   1.000
    O284    O    0.02315   0.30295   0.77786   1.000
    O285    O    0.94688   0.38131   0.84395   1.000
    O286    O    0.14212   0.54963   0.85218   1.000
    O287    O    0.54044   0.36758   0.80901   1.000
    O288    O    0.46880   0.41015   0.83299   1.000
    O289    O    0.57454   0.29403   0.83433   1.000
    O290    O    0.49911   0.83116   0.83285   1.000
    O291    O    0.54671   0.90927   0.86568   1.000
    O292    O    0.47075   0.74531   0.87327   1.000
    O293    O    0.00209   0.62175   0.89905   1.000
    O294    O    0.59191   0.98104   0.88753   1.000
    O295    O    0.79548   0.44252   0.91028   1.000
    O296    O    0.44003   0.66716   0.90330   1.000
    O297    O    0.57611   0.92059   0.94226   1.000
    O298    O    0.08168   0.58795   0.91272   1.000
    O299    O    0.16917   0.55462   0.93503   1.000
    O300    O    0.48197   0.71835   0.95115   1.000
    O301    O    0.87250   0.41401   0.92578   1.000
    O302    O    0.95665   0.38139   0.94722   1.000
    O303    O    0.24680   0.52885   0.96222   1.000
    O304    O    0.03020   0.35080   0.97005   1.000
    O305    O    0.56190   0.86509   0.98706   1.000
loop_
    _geom_bond_atom_site_label_1
    _geom_bond_atom_site_label_2
    _geom_bond_distance
    _geom_bond_site_symmetry_2
    _ccdc_geom_bond_type
    C135   O138      0.63713      .   S
    C82    O138      0.63713      .   S
    C27    O139      0.53807      .   S
    C133   O139      0.53807      .   S
    C133   O140      0.65241      .   S
    C81    O140      0.65241      .   S
    C45    O141      0.54498  1_455   S
    C10    O141      0.54498      .   S
    C45    O142      0.67553      .   S
    C98    O142      0.67553      .   S
    C45    O143      0.69322  1_554   S
    C44    O143      0.69322      .   S
    C70    O144      0.54369      .   S
    C22    O144      0.54369      .   S
    C70    O145      0.70112      .   S
    C71    O145      0.70112      .   S
    C70    O146      0.69485  1_554   S
    C69    O146      0.69485      .   S
    C41    O147      0.67520      .   S
    C98    O147      0.67520      .   S
    C41    O148      0.54491      .   S
    C7     O148      0.54491      .   S
    C41    O149      0.69459      .   S
    C42    O149      0.69459  1_556   S
    C72    O150      0.70286      .   S
    C71    O150      0.70286      .   S
    C72    O151      0.54422      .   S
    C23    O151      0.54422  1_455   S
    C72    O152      0.69338      .   S
    C73    O152      0.69338  1_556   S
    C98    O153      1.05787      .   S
    C2     O153      1.05787      .   S
    C82    O154      0.63680      .   S
    C134   O154      0.63680      .   S
    C82    O155      0.74054      .   S
    C80    O155      0.74054      .   S
    C71    O156      0.73402      .   S
    C64    O156      0.73402      .   S
    C81    O157      0.62738      .   S
    C132   O157      0.62738  1_565   S
    C81    O158      0.73379      .   S
    C79    O158      0.73379      .   S
    C134   O159      1.07317      .   S
    C5     O159      1.07317      .   S
    C132   O160      1.08355      .   S
    C3     O160      1.08355      .   S
    C33    O161      0.54405      .   S
    C91    O161      0.54405      .   S
    C32    O162      0.54425      .   S
    C90    O162      0.54425      .   S
    C80    O163      0.69418      .   S
    C79    O163      0.69418      .   S
    C80    O164      0.68672      .   S
    C109   O164      0.68672      .   S
    C79    O165      0.68598      .   S
    C108   O165      0.68598      .   S
    C91    O166      0.69416      .   S
    C90    O166      0.69416      .   S
    C91    O167      0.70106      .   S
    C95    O167      0.70106      .   S
    C90    O168      0.67563      .   S
    C113   O168      0.67563      .   S
    C64    O169      0.68013      .   S
    C104   O169      0.68013      .   S
    C64    O170      0.68076      .   S
    C105   O170      0.68076      .   S
    C130   O171      1.02801      .   S
    C2     O171      1.02801  1_455   S
    C130   O172      0.74427      .   S
    C75    O172      0.74427  1_455   S
    C2     O173      1.04932  1_455   S
    C104   O173      1.04932      .   S
    C2     O174      1.04305      .   S
    C107   O174      1.04305      .   S
    C2     O175      1.10306      .   S
    C126   O175      1.10306      .   S
    C75    O176      0.72081  1_455   S
    C131   O176      0.72081      .   S
    C75    O177      0.57114      .   S
    C74    O177      0.57114      .   S
    C104   O178      0.68626      .   S
    C65    O178      0.68626      .   S
    C107   O179      0.68328      .   S
    C74    O179      0.68328      .   S
    C107   O180      0.67821      .   S
    C94    O180      0.67821      .   S
    C74    O181      0.69623      .   S
    C88    O181      0.69623      .   S
    C105   O182      1.03431      .   S
    C5     O182      1.03431      .   S
    C105   O183      0.68696      .   S
    C66    O183      0.68696      .   S
    C94    O184      0.73112      .   S
    C95    O184      0.73112      .   S
    C94    O185      0.67605      .   S
    C111   O185      0.67605      .   S
    C95    O186      0.70126      .   S
    C77    O186      0.70126      .   S
    C5     O187      1.04841      .   S
    C113   O187      1.04841      .   S
    C5     O188      1.03580      .   S
    C109   O188      1.03580      .   S
    C5     O189      1.07025      .   S
    C128   O189      1.07025      .   S
    C113   O190      0.67563      .   S
    C76    O190      0.67563      .   S
    C109   O191      0.68099      .   S
    C78    O191      0.68099      .   S
    C35    O192      0.54442      .   S
    C137   O192      0.54442      .   S
    C88    O193      0.68626      .   S
    C111   O193      0.68626      .   S
    C88    O194      0.73081      .   S
    C89    O194      0.73081  1_545   S
    C111   O195      1.04568      .   S
    C3     O195      1.04568      .   S
    C108   O196      1.05018      .   S
    C3     O196      1.05018  1_565   S
    C108   O197      0.68010      .   S
    C78    O197      0.68010      .   S
    C137   O198      0.64955      .   S
    C89    O198      0.64955      .   S
    C89    O199      0.63330      .   S
    C136   O199      0.63330      .   S
    C3     O200      1.04640  1_565   S
    C136   O200      1.04640      .   S
    C3     O201      1.05882      .   S
    C102   O201      1.05882      .   S
    C78    O202      0.73409      .   S
    C85    O202      0.73409      .   S
    C76    O203      0.69404      .   S
    C77    O203      0.69404      .   S
    C76    O204      0.54417      .   S
    C25    O204      0.54417      .   S
    C77    O205      0.54412      .   S
    C26    O205      0.54412      .   S
    C65    O206      0.69454      .   S
    C66    O206      0.69454      .   S
    C65    O207      0.73459      .   S
    C67    O207      0.73459      .   S
    C66    O208      0.74093      .   S
    C68    O208      0.74093      .   S
    C126   O209      0.62593  1_455   S
    C67    O209      0.62593      .   S
    C30    O210      0.54436  1_565   S
    C86    O210      0.54436      .   S
    C14    O211      0.54493      .   S
    C55    O211      0.54493      .   S
    C128   O212      0.63746      .   S
    C68    O212      0.63746      .   S
    C67    O213      0.65349      .   S
    C127   O213      0.65349      .   S
    C85    O214      0.70283      .   S
    C86    O214      0.70283      .   S
    C85    O215      0.70118      .   S
    C84    O215      0.70118      .   S
    C68    O216      0.63672      .   S
    C129   O216      0.63672      .   S
    C102   O217      0.67546      .   S
    C55    O217      0.67546      .   S
    C102   O218      0.67574      .   S
    C59    O218      0.67574      .   S
    C86    O219      0.69341      .   S
    C87    O219      0.69341      .   S
    C55    O220      0.69477      .   S
    C56    O220      0.69477      .   S
    C29    O221      0.54366      .   S
    C84    O221      0.54366      .   S
    C17    O222      0.54502      .   S
    C59    O222      0.54502  1_565   S
    C84    O223      0.69481      .   S
    C83    O223      0.69481      .   S
    C59    O224      0.69332      .   S
    C58    O224      0.69332      .   S
    C127   O225      0.53570      .   S
    C20    O225      0.53570      .   S
    C117   O226      0.63683      .   S
    C40    O226      0.63683      .   S
    C6     O227      0.53606      .   S
    C115   O227      0.53606      .   S
    C115   O228      0.65329      .   S
    C39    O228      0.65329      .   S
    C87    O229      0.54502  1_545   S
    C31    O229      0.54502      .   S
    C87    O230      0.67575      .   S
    C110   O230      0.67575      .   S
    C56    O231      0.54364      .   S
    C15    O231      0.54364      .   S
    C56    O232      0.70114      .   S
    C57    O232      0.70114      .   S
    C83    O233      0.67550      .   S
    C110   O233      0.67550      .   S
    C83    O234      0.54493      .   S
    C28    O234      0.54493      .   S
    C58    O235      0.70285      .   S
    C57    O235      0.70285      .   S
    C58    O236      0.54434      .   S
    C16    O236      0.54434  1_545   S
    C110   O237      1.05994      .   S
    C1     O237      1.05994      .   S
    C40    O238      0.63731      .   S
    C116   O238      0.63731      .   S
    C40    O239      0.74076      .   S
    C38    O239      0.74076      .   S
    C57    O240      0.73400      .   S
    C50    O240      0.73400      .   S
    C39    O241      0.62641      .   S
    C114   O241      0.62641  1_655   S
    C39    O242      0.73414      .   S
    C37    O242      0.73414      .   S
    C116   O243      1.07283      .   S
    C4     O243      1.07283      .   S
    C114   O244      1.09385      .   S
    C0     O244      1.09385      .   S
    C12    O245      0.54405      .   S
    C49    O245      0.54405      .   S
    C11    O246      0.54417      .   S
    C48    O246      0.54417      .   S
    C38    O247      0.69440      .   S
    C37    O247      0.69440      .   S
    C38    O248      0.68685      .   S
    C97    O248      0.68685      .   S
    C37    O249      0.68614      .   S
    C96    O249      0.68614      .   S
    C49    O250      0.69394      .   S
    C48    O250      0.69394      .   S
    C49    O251      0.70112      .   S
    C93    O251      0.70112      .   S
    C48    O252      0.67564      .   S
    C112   O252      0.67564      .   S
    C50    O253      0.68019      .   S
    C100   O253      0.68019      .   S
    C50    O254      0.68105      .   S
    C101   O254      0.68105      .   S
    C124   O255      1.04649      .   S
    C1     O255      1.04649  1_545   S
    C124   O256      0.71266      .   S
    C61    O256      0.71266  1_545   S
    C1     O257      1.05012  1_545   S
    C100   O257      1.05012      .   S
    C1     O258      1.04519      .   S
    C103   O258      1.04519      .   S
    C1     O259      1.08276      .   S
    C120   O259      1.08276      .   S
    C61    O260      0.71184  1_545   S
    C125   O260      0.71184      .   S
    C61    O261      0.60275      .   S
    C60    O261      0.60275      .   S
    C125   O262      0.60696      .   S
    C34    O262      0.60696  1_445   S
    C100   O263      0.68590      .   S
    C51    O263      0.68590      .   S
    C103   O264      0.68619      .   S
    C60    O264      0.68619      .   S
    C103   O265      0.67590      .   S
    C92    O265      0.67590      .   S
    C60    O266      0.69614      .   S
    C46    O266      0.69614      .   S
    C101   O267      1.03662      .   S
    C4     O267      1.03662      .   S
    C101   O268      0.68676      .   S
    C52    O268      0.68676      .   S
    C112   O269      1.04806      .   S
    C4     O269      1.04806      .   S
    C112   O270      0.67569      .   S
    C62    O270      0.67569      .   S
    C4     O271      1.03266      .   S
    C97    O271      1.03266      .   S
    C4     O272      1.07369      .   S
    C122   O272      1.07369      .   S
    C93    O273      0.73116      .   S
    C92    O273      0.73116      .   S
    C93    O274      0.70113      .   S
    C63    O274      0.70113      .   S
    C92    O275      0.67820      .   S
    C99    O275      0.67820      .   S
    C97    O276      0.68065      .   S
    C36    O276      0.68065      .   S
    C46    O277      0.68336      .   S
    C99    O277      0.68336      .   S
    C46    O278      0.73938      .   S
    C47    O278      0.73938  1_455   S
    C96    O279      1.05044      .   S
    C0     O279      1.05044  1_655   S
    C96    O280      0.67983      .   S
    C36    O280      0.67983      .   S
    C99    O281      1.04164      .   S
    C0     O281      1.04164      .   S
    C119   O282      0.63638      .   S
    C47    O282      0.63638      .   S
    C47    O283      0.64057      .   S
    C118   O283      0.64057      .   S
    C0     O284      1.02909  1_655   S
    C118   O284      1.02909      .   S
    C0     O285      1.06347      .   S
    C106   O285      1.06347      .   S
    C36    O286      0.73351      .   S
    C43    O286      0.73351      .   S
    C62    O287      0.69425      .   S
    C63    O287      0.69425      .   S
    C62    O288      0.54420      .   S
    C18    O288      0.54420      .   S
    C63    O289      0.54414      .   S
    C19    O289      0.54414      .   S
    C51    O290      0.69423      .   S
    C52    O290      0.69423      .   S
    C51    O291      0.73397      .   S
    C53    O291      0.73397      .   S
    C52    O292      0.74031      .   S
    C54    O292      0.74031      .   S
    C9     O293      0.54420  1_655   S
    C44    O293      0.54420      .   S
    C120   O294      0.62738  1_545   S
    C53    O294      0.62738      .   S
    C21    O295      0.54491      .   S
    C69    O295      0.54491      .   S
    C122   O296      0.63684      .   S
    C54    O296      0.63684      .   S
    C53    O297      0.65198      .   S
    C121   O297      0.65198      .   S
    C43    O298      0.70274      .   S
    C44    O298      0.70274      .   S
    C43    O299      0.70104      .   S
    C42    O299      0.70104      .   S
    C54    O300      0.63718      .   S
    C123   O300      0.63718      .   S
    C106   O301      0.67526      .   S
    C69    O301      0.67526      .   S
    C106   O302      0.67556      .   S
    C73    O302      0.67556      .   S
    C8     O303      0.54362      .   S
    C42    O303      0.54362      .   S
    C24    O304      0.54499      .   S
    C73    O304      0.54499  1_655   S
    C121   O305      0.53849      .   S
    C13    O305      0.53849      .   S
