# CIF file generated by openbabel 2.4.90, see http://openbabel.sf.net
data_I
_chemical_name_common ''
_cell_length_a 14.712
_cell_length_b 18.13
_cell_length_c 25.12
_cell_angle_alpha 89.962
_cell_angle_beta 90.097
_cell_angle_gamma 90.047
_space_group_name_H-M_alt 'P 1'
_space_group_name_Hall 'P 1'
loop_
    _symmetry_equiv_pos_as_xyz
    x,y,z
loop_
    _atom_site_label
    _atom_site_type_symbol
    _atom_site_fract_x
    _atom_site_fract_y
    _atom_site_fract_z
    _atom_site_occupancy
    H0      H    0.48486   0.94814   0.92896   1.000
    H1      H    0.46464   0.81134   0.93167   1.000
    H2      H    0.54965   0.80600   0.76689   1.000
    H3      H    0.56835   0.94258   0.77168   1.000
    H4      H    0.53244   0.56391   0.92555   1.000
    H5      H    0.55344   0.70086   0.92760   1.000
    H6      H    0.42870   0.70888   0.77163   1.000
    H7      H    0.41389   0.57193   0.77613   1.000
    H8      H    0.82472   0.09067   0.81279   1.000
    H9      H    0.98180   0.13859   0.80432   1.000
    H10     H    0.89969   0.33982   0.88233   1.000
    H11     H    0.74213   0.29188   0.88826   1.000
    H12     H    0.00932   0.38657   0.83594   1.000
    H13     H    0.16658   0.43347   0.83722   1.000
    H14     H    0.26886   0.21171   0.84126   1.000
    H15     H    0.11094   0.16357   0.84449   1.000
    H16     H    0.38227   0.01749   0.99103   1.000
    H17     H    0.29427   0.01710   0.07486   1.000
    H18     H    0.25806   0.25236   0.06166   1.000
    H19     H    0.34564   0.25143   0.97653   1.000
    H20     H    0.15685   0.02776   0.11046   1.000
    H21     H    0.07570   0.02345   0.19695   1.000
    H22     H    0.18730   0.23371   0.23980   1.000
    H23     H    0.26988   0.23917   0.15335   1.000
    H24     H    0.33420   0.03748   0.73480   1.000
    H25     H    0.23637   0.03584   0.65467   1.000
    H26     H    0.34413   0.24819   0.60867   1.000
    H27     H    0.43779   0.25017   0.69111   1.000
    H28     H    0.22483   0.01921   0.57295   1.000
    H29     H    0.12622   0.01298   0.49360   1.000
    H30     H    0.11551   0.24913   0.48632   1.000
    H31     H    0.21366   0.25704   0.56718   1.000
    H32     H    0.98495   0.55164   0.42888   1.000
    H33     H    0.96459   0.68838   0.43163   1.000
    H34     H    0.04974   0.69427   0.26687   1.000
    H35     H    0.06858   0.55773   0.27163   1.000
    H36     H    0.03227   0.93600   0.42550   1.000
    H37     H    0.05336   0.79909   0.42760   1.000
    H38     H    0.92858   0.79115   0.27162   1.000
    H39     H    0.91366   0.92806   0.27613   1.000
    H40     H    0.32497   0.40937   0.31272   1.000
    H41     H    0.48192   0.36140   0.30429   1.000
    H42     H    0.39928   0.16015   0.38241   1.000
    H43     H    0.24187   0.20814   0.38830   1.000
    H44     H    0.50886   0.11337   0.33610   1.000
    H45     H    0.66600   0.06644   0.33738   1.000
    H46     H    0.76880   0.28818   0.34123   1.000
    H47     H    0.61101   0.33636   0.34444   1.000
    H48     H    0.88238   0.48244   0.49082   1.000
    H49     H    0.79439   0.48293   0.57465   1.000
    H50     H    0.75777   0.24765   0.56182   1.000
    H51     H    0.84534   0.24848   0.47667   1.000
    H52     H    0.65703   0.47231   0.61030   1.000
    H53     H    0.57599   0.47673   0.69681   1.000
    H54     H    0.68715   0.26650   0.73995   1.000
    H55     H    0.76963   0.26092   0.65347   1.000
    H56     H    0.83412   0.46243   0.23480   1.000
    H57     H    0.73622   0.46406   0.15473   1.000
    H58     H    0.84413   0.25201   0.10868   1.000
    H59     H    0.93781   0.25001   0.19111   1.000
    H60     H    0.72462   0.48082   0.07301   1.000
    H61     H    0.62604   0.48700   0.99366   1.000
    H62     H    0.61558   0.25084   0.98636   1.000
    H63     H    0.71371   0.24298   0.06722   1.000
    H64     H    0.01504   0.44832   0.57112   1.000
    H65     H    0.03540   0.31158   0.56830   1.000
    H66     H    0.95027   0.30570   0.73313   1.000
    H67     H    0.93143   0.44224   0.72837   1.000
    H68     H    0.96772   0.06397   0.57446   1.000
    H69     H    0.94663   0.20087   0.57241   1.000
    H70     H    0.07142   0.20881   0.72838   1.000
    H71     H    0.08634   0.07190   0.72387   1.000
    H72     H    0.67503   0.59059   0.68728   1.000
    H73     H    0.51808   0.63856   0.69571   1.000
    H74     H    0.60071   0.83982   0.61759   1.000
    H75     H    0.75813   0.79182   0.61169   1.000
    H76     H    0.49114   0.88659   0.66391   1.000
    H77     H    0.33400   0.93352   0.66263   1.000
    H78     H    0.23120   0.71179   0.65877   1.000
    H79     H    0.38899   0.66361   0.65556   1.000
    H80     H    0.11761   0.51753   0.50910   1.000
    H81     H    0.20561   0.51704   0.42535   1.000
    H82     H    0.24222   0.75232   0.43818   1.000
    H83     H    0.15465   0.75149   0.52333   1.000
    H84     H    0.34296   0.52765   0.38970   1.000
    H85     H    0.42400   0.52323   0.30319   1.000
    H86     H    0.31285   0.73346   0.26005   1.000
    H87     H    0.23037   0.73904   0.34653   1.000
    C88     C    0.99354   0.78369   0.34927   1.000
    C89     C    0.95393   0.82105   0.30622   1.000
    C90     C    0.94459   0.89720   0.30869   1.000
    H91     H    0.16588   0.53753   0.76516   1.000
    H92     H    0.26378   0.53591   0.84527   1.000
    H93     H    0.15587   0.74796   0.89132   1.000
    H94     H    0.06219   0.74996   0.80889   1.000
    H95     H    0.27539   0.51915   0.92699   1.000
    H96     H    0.37396   0.51297   0.00634   1.000
    H97     H    0.38442   0.74913   0.01364   1.000
    H98     H    0.28630   0.75699   0.93278   1.000
    H99     H    0.51514   0.05183   0.07105   1.000
    H100    H    0.53536   0.18862   0.06833   1.000
    H101    H    0.45035   0.19397   0.23311   1.000
    H102    H    0.43166   0.05739   0.22833   1.000
    H103    H    0.46756   0.43605   0.07445   1.000
    H104    H    0.44656   0.29910   0.07239   1.000
    H105    H    0.57131   0.29108   0.22830   1.000
    H106    H    0.58612   0.42803   0.22380   1.000
    H107    H    0.17528   0.90930   0.18721   1.000
    H108    H    0.01820   0.86138   0.19568   1.000
    H109    H    0.10031   0.66014   0.11768   1.000
    H110    H    0.25787   0.70808   0.11175   1.000
    H111    H    0.99068   0.61339   0.16407   1.000
    H112    H    0.83342   0.56650   0.16279   1.000
    H113    H    0.73113   0.78826   0.15874   1.000
    H114    H    0.88905   0.83640   0.15551   1.000
    H115    H    0.61773   0.98248   0.00897   1.000
    H116    H    0.70573   0.98287   0.92514   1.000
    H117    H    0.74195   0.74761   0.93834   1.000
    H118    H    0.65436   0.74854   0.02347   1.000
    C119    C    0.65785   0.64521   0.67225   1.000
    C120    C    0.56981   0.67246   0.67660   1.000
    C121    C    0.54687   0.74302   0.65719   1.000
    C122    C    0.61653   0.78566   0.63401   1.000
    C123    C    0.70466   0.75880   0.62982   1.000
    H124    H    0.84315   0.97221   0.88954   1.000
    H125    H    0.92430   0.97651   0.80305   1.000
    H126    H    0.81270   0.76624   0.76020   1.000
    H127    H    0.73012   0.76079   0.84665   1.000
    H128    H    0.66580   0.96249   0.26520   1.000
    H129    H    0.76363   0.96413   0.34533   1.000
    H130    H    0.65586   0.75178   0.39134   1.000
    H131    H    0.56220   0.74980   0.30890   1.000
    H132    H    0.77516   0.98075   0.42700   1.000
    H133    H    0.87378   0.98699   0.50641   1.000
    H134    H    0.88449   0.75083   0.51360   1.000
    H135    H    0.78633   0.74293   0.43283   1.000
    C136    C    0.49881   0.91410   0.89428   1.000
    C137    C    0.48757   0.83818   0.89531   1.000
    C138    C    0.50483   0.79718   0.84914   1.000
    C139    C    0.53379   0.83525   0.80358   1.000
    C140    C    0.54493   0.91124   0.80606   1.000
    C141    C    0.51070   0.59859   0.89254   1.000
    C142    C    0.52192   0.67451   0.89328   1.000
    C143    C    0.49363   0.71630   0.84929   1.000
    C144    C    0.45405   0.67896   0.80623   1.000
    C145    C    0.44479   0.60279   0.80868   1.000
    C146    C    0.77395   0.18801   0.85163   1.000
    C147    C    0.84205   0.14527   0.82778   1.000
    C148    C    0.93015   0.17250   0.82339   1.000
    C149    C    0.95326   0.24303   0.84279   1.000
    C150    C    0.88372   0.28569   0.86590   1.000
    C151    C    0.79552   0.25887   0.87015   1.000
    C152    C    0.04755   0.27124   0.84011   1.000
    C153    C    0.06555   0.34753   0.83780   1.000
    C154    C    0.15419   0.37430   0.83805   1.000
    C155    C    0.22799   0.32547   0.83887   1.000
    C156    C    0.21118   0.24928   0.83980   1.000
    C157    C    0.12244   0.22280   0.84102   1.000
    C158    C    0.36974   0.13465   0.97860   1.000
    C159    C    0.35395   0.06874   0.00632   1.000
    C160    C    0.30406   0.06865   0.05324   1.000
    C161    C    0.26990   0.13478   0.07460   1.000
    C162    C    0.28591   0.20075   0.04650   1.000
    C163    C    0.33424   0.20067   0.99887   1.000
    C164    C    0.21970   0.13373   0.12550   1.000
    C165    C    0.16461   0.07292   0.13872   1.000
    C166    C    0.11889   0.07023   0.18699   1.000
    C167    C    0.12714   0.12794   0.22383   1.000
    C168    C    0.18134   0.18907   0.21100   1.000
    C169    C    0.22663   0.19193   0.16240   1.000
    C170    C    0.39242   0.14364   0.71772   1.000
    C171    C    0.33528   0.08352   0.70693   1.000
    C172    C    0.28100   0.08281   0.66170   1.000
    C173    C    0.28295   0.14184   0.62520   1.000
    C174    C    0.33994   0.20229   0.63662   1.000
    C175    C    0.39348   0.20351   0.68240   1.000
    C176    C    0.22638   0.13879   0.57658   1.000
    C177    C    0.20100   0.07019   0.55471   1.000
    C178    C    0.14559   0.06631   0.50998   1.000
    C179    C    0.11330   0.13076   0.48560   1.000
    C180    C    0.13954   0.19942   0.50631   1.000
    C181    C    0.19530   0.20324   0.55102   1.000
    C182    C    0.99892   0.58579   0.39422   1.000
    C183    C    0.98756   0.66167   0.39526   1.000
    C184    C    0.00485   0.70283   0.34911   1.000
    C185    C    0.03387   0.66491   0.30355   1.000
    C186    C    0.04510   0.58893   0.30602   1.000
    C187    C    0.01053   0.90135   0.39254   1.000
    C188    C    0.02183   0.82545   0.39326   1.000
    C189    C    0.27393   0.31203   0.35162   1.000
    C190    C    0.34215   0.35475   0.32775   1.000
    C191    C    0.43018   0.32750   0.32338   1.000
    C192    C    0.45313   0.25694   0.34282   1.000
    C193    C    0.38347   0.21430   0.36600   1.000
    C194    C    0.29534   0.24116   0.37018   1.000
    C195    C    0.54734   0.22871   0.34015   1.000
    C196    C    0.56518   0.15241   0.33800   1.000
    C197    C    0.65376   0.12562   0.33817   1.000
    C198    C    0.72768   0.17442   0.33893   1.000
    C199    C    0.71103   0.25061   0.33980   1.000
    C200    C    0.62235   0.27712   0.34102   1.000
    C201    C    0.86966   0.36527   0.47856   1.000
    C202    C    0.85398   0.43121   0.50619   1.000
    C203    C    0.80409   0.43135   0.55311   1.000
    C204    C    0.76982   0.36524   0.57461   1.000
    C205    C    0.78571   0.29924   0.54650   1.000
    C206    C    0.83404   0.29926   0.49893   1.000
    C207    C    0.71965   0.36634   0.62549   1.000
    C208    C    0.66471   0.42718   0.63863   1.000
    C209    C    0.61906   0.42993   0.68690   1.000
    C210    C    0.62724   0.37227   0.72383   1.000
    C211    C    0.68127   0.31111   0.71100   1.000
    C212    C    0.72649   0.30818   0.66248   1.000
    C213    C    0.89239   0.35641   0.21774   1.000
    C214    C    0.83520   0.41645   0.20697   1.000
    C215    C    0.78091   0.41716   0.16174   1.000
    C216    C    0.78288   0.35821   0.12524   1.000
    C217    C    0.83992   0.29784   0.13664   1.000
    C218    C    0.89346   0.29661   0.18242   1.000
    C219    C    0.72630   0.36124   0.07662   1.000
    C220    C    0.70084   0.42983   0.05476   1.000
    C221    C    0.64547   0.43368   0.01003   1.000
    C222    C    0.61326   0.36921   0.98566   1.000
    C223    C    0.63955   0.30057   0.00634   1.000
    C224    C    0.69529   0.29678   0.05106   1.000
    C225    C    0.00000   0.41418   0.60578   1.000
    C226    C    0.01243   0.33829   0.60474   1.000
    C227    C    0.99515   0.29713   0.65089   1.000
    C228    C    0.96614   0.33506   0.69645   1.000
    C229    C    0.95490   0.41103   0.69399   1.000
    C230    C    0.98946   0.09861   0.60747   1.000
    C231    C    0.97816   0.17451   0.60674   1.000
    C232    C    0.00645   0.21627   0.65073   1.000
    C233    C    0.04607   0.17891   0.69378   1.000
    C234    C    0.05540   0.10276   0.69132   1.000
    C235    C    0.72606   0.68793   0.64838   1.000
    C236    C    0.45266   0.77125   0.65985   1.000
    C237    C    0.43482   0.84755   0.66201   1.000
    C238    C    0.34624   0.87435   0.66180   1.000
    C239    C    0.27232   0.82554   0.66107   1.000
    C240    C    0.28897   0.74935   0.66018   1.000
    C241    C    0.37764   0.72284   0.65898   1.000
    C242    C    0.13033   0.63470   0.52144   1.000
    C243    C    0.14601   0.56875   0.49381   1.000
    C244    C    0.19590   0.56861   0.44600   1.000
    C245    C    0.23018   0.63472   0.42500   1.000
    C246    C    0.21428   0.70072   0.45343   1.000
    C247    C    0.16595   0.70071   0.50100   1.000
    C248    C    0.28034   0.63363   0.37451   1.000
    C249    C    0.33528   0.57278   0.36137   1.000
    C250    C    0.38093   0.57003   0.31310   1.000
    C251    C    0.37275   0.62769   0.27617   1.000
    C252    C    0.31873   0.68886   0.28893   1.000
    C253    C    0.27350   0.69178   0.33753   1.000
    C254    C    0.10762   0.64356   0.78226   1.000
    C255    C    0.16481   0.58352   0.79303   1.000
    C256    C    0.21910   0.58281   0.83826   1.000
    C257    C    0.21713   0.64176   0.87476   1.000
    C258    C    0.16008   0.70213   0.86336   1.000
    C259    C    0.10654   0.70336   0.81758   1.000
    C260    C    0.27370   0.63873   0.92338   1.000
    C261    C    0.29916   0.57014   0.94524   1.000
    C262    C    0.35454   0.56629   0.98997   1.000
    C263    C    0.38674   0.63076   0.01430   1.000
    C264    C    0.36045   0.69940   0.99366   1.000
    C265    C    0.30471   0.70319   0.94894   1.000
    C266    C    0.50119   0.08587   0.10572   1.000
    C267    C    0.51244   0.16178   0.10469   1.000
    C268    C    0.49517   0.20279   0.15086   1.000
    C269    C    0.46622   0.16472   0.19642   1.000
    C270    C    0.45508   0.08873   0.19395   1.000
    C271    C    0.48930   0.40137   0.10746   1.000
    C272    C    0.47808   0.32546   0.10672   1.000
    C273    C    0.50637   0.28367   0.15070   1.000
    C274    C    0.54596   0.32101   0.19377   1.000
    C275    C    0.55521   0.39718   0.19132   1.000
    C276    C    0.22604   0.81196   0.14837   1.000
    C277    C    0.15795   0.85470   0.17222   1.000
    C278    C    0.06985   0.82747   0.17661   1.000
    C279    C    0.04674   0.75693   0.15722   1.000
    C280    C    0.11628   0.71428   0.13406   1.000
    C281    C    0.20447   0.74110   0.12986   1.000
    C282    C    0.95245   0.72873   0.15990   1.000
    C283    C    0.93445   0.65244   0.16212   1.000
    C284    C    0.84581   0.62567   0.16195   1.000
    C285    C    0.77201   0.67449   0.16114   1.000
    C286    C    0.78882   0.75068   0.16018   1.000
    C287    C    0.87755   0.77717   0.15898   1.000
    C288    C    0.63026   0.86532   0.02140   1.000
    C289    C    0.64605   0.93123   0.99360   1.000
    C290    C    0.69594   0.93132   0.94670   1.000
    C291    C    0.73010   0.86519   0.92537   1.000
    C292    C    0.71409   0.79922   0.95350   1.000
    C293    C    0.66576   0.79929   0.00114   1.000
    C294    C    0.78030   0.86623   0.87449   1.000
    C295    C    0.83539   0.92705   0.86128   1.000
    C296    C    0.88111   0.92973   0.81301   1.000
    C297    C    0.87286   0.87202   0.77617   1.000
    C298    C    0.81866   0.81089   0.78900   1.000
    C299    C    0.77337   0.80803   0.83759   1.000
    C300    C    0.60758   0.85632   0.28228   1.000
    C301    C    0.66472   0.91645   0.29300   1.000
    C302    C    0.71899   0.91715   0.33831   1.000
    C303    C    0.71705   0.85813   0.37481   1.000
    C304    C    0.66005   0.79768   0.36338   1.000
    C305    C    0.60651   0.79646   0.31760   1.000
    C306    C    0.77361   0.86118   0.42343   1.000
    C307    C    0.79900   0.92977   0.44500   1.000
    C308    C    0.85440   0.93365   0.49002   1.000
    C309    C    0.88670   0.86921   0.51440   1.000
    C310    C    0.86045   0.80054   0.49300   1.000
    C311    C    0.80469   0.79673   0.44899   1.000
    N312    N    0.52766   0.95042   0.85053   1.000
    N313    N    0.47270   0.56281   0.85095   1.000
    N314    N    0.02785   0.54961   0.35048   1.000
    N315    N    0.97247   0.93715   0.35096   1.000
    N316    N    0.97215   0.45036   0.64952   1.000
    N317    N    0.02752   0.06281   0.64905   1.000
    N318    N    0.47234   0.04954   0.14947   1.000
    N319    N    0.52731   0.43715   0.14905   1.000
loop_
    _geom_bond_atom_site_label_1
    _geom_bond_atom_site_label_2
    _geom_bond_distance
    _geom_bond_site_symmetry_2
    _ccdc_geom_bond_type
    C293   C288      1.40269      .   S
    C293   H118      1.09031      .   S
    C293   C292      1.39310  1_554   S
    C159   C160      1.38952      .   S
    C159   C158      1.40207  1_554   S
    C159   H16       1.08908  1_554   S
    C223   C224      1.39142      .   S
    C223   C222      1.40270  1_554   S
    C223   H62       1.09029  1_554   S
    H96    C262      1.08842  1_554   S
    H115   C289      1.08978  1_554   S
    C221   C220      1.38851      .   S
    C221   C222      1.40164  1_554   S
    C221   H61       1.08843  1_554   S
    H97    C264      1.09030  1_554   S
    C263   C262      1.40120  1_554   S
    C263   C264      1.40233  1_554   S
    C288   C289      1.40306  1_554   S
    C162   H18       1.09085      .   S
    C162   C161      1.40830      .   S
    C162   C163      1.39288  1_554   S
    C224   H63       1.09037      .   S
    C224   C219      1.40906      .   S
    C160   C161      1.40734      .   S
    C160   H17       1.09025      .   S
    C220   H60       1.08941      .   S
    C220   C219      1.40966      .   S
    H100   C267      1.08856      .   S
    H99    C266      1.08769      .   S
    H104   C272      1.08895      .   S
    H103   C271      1.08806      .   S
    C161   C164      1.47776      .   S
    C219   C216      1.47785      .   S
    C267   C266      1.38633      .   S
    C267   C268      1.40173      .   S
    C266   N318      1.34973      .   S
    C272   C271      1.38626      .   S
    C272   C273      1.40201      .   S
    C271   N319      1.35024      .   S
    H58    C217      1.09015      .   S
    H20    C165      1.08977      .   S
    H110   C281      1.08845      .   S
    H109   C280      1.08975      .   S
    C216   C217      1.40875      .   S
    C216   C215      1.40897      .   S
    C164   C165      1.40778      .   S
    C164   C169      1.40842      .   S
    C281   C280      1.38951      .   S
    C281   C276      1.40243      .   S
    C280   C279      1.40960      .   S
    C217   C218      1.39298      .   S
    C165   C166      1.38843      .   S
    C276   C277      1.40240      .   S
    N319   C275      1.34880      .   S
    N318   C270      1.34906      .   S
    C273   C268      1.47540      .   S
    C273   C274      1.40220      .   S
    C268   C269      1.40276      .   S
    H23    C169      1.09067      .   S
    H57    C215      1.08930      .   S
    H114   C287      1.09038      .   S
    C279   C282      1.47966  1_455   S
    C279   C278      1.40990      .   S
    H113   C286      1.08922      .   S
    C287   C282      1.40971      .   S
    C287   C286      1.39105      .   S
    C282   C283      1.40923      .   S
    C286   C285      1.40327      .   S
    C285   C284      1.40150      .   S
    C215   C214      1.38778      .   S
    C284   C283      1.39107      .   S
    C284   H112      1.08821      .   S
    C283   H111      1.09016      .   S
    C169   C168      1.39272      .   S
    C277   C278      1.39115      .   S
    C277   H107      1.08925      .   S
    C278   H108      1.08952      .   S
    C218   H59       1.08963      .   S
    C218   C213      1.40145      .   S
    C166   H21       1.08865      .   S
    C166   C167      1.40225      .   S
    C275   C274      1.38882      .   S
    C275   H106      1.08829      .   S
    C274   H105      1.08831      .   S
    C270   C269      1.38873      .   S
    C270   H102      1.08967      .   S
    C269   H101      1.08934      .   S
    C214   C213      1.40234      .   S
    C214   H56       1.08848      .   S
    C168   C167      1.40249      .   S
    C168   H22       1.08934      .   S
    H86    C252      1.08950      .   S
    H128   C301      1.08804      .   S
    H34    C185      1.08937      .   S
    H38    C89       1.08977      .   S
    H35    C186      1.08980      .   S
    H39    C90       1.08981      .   S
    C251   C252      1.40243      .   S
    C251   C250      1.40228      .   S
    C300   C301      1.40200      .   S
    C300   C305      1.40149      .   S
    C252   C253      1.39242      .   S
    C301   C302      1.38928      .   S
    H85    C250      1.08867      .   S
    C185   C186      1.38880      .   S
    C185   C184      1.40281      .   S
    H41    C191      1.08953      .   S
    C186   N314      1.34898      .   S
    C89    C90       1.38889      .   S
    C89    C88       1.40198      .   S
    C90    N315      1.34888      .   S
    H131   C305      1.08962      .   S
    H40    C190      1.08919      .   S
    C250   C249      1.38810      .   S
    C305   C304      1.39294      .   S
    C191   C190      1.39123      .   S
    C191   C192      1.40998      .   S
    C190   C189      1.40240      .   S
    H44    C196      1.09018      .   S
    H45    C197      1.08824      .   S
    C253   H87       1.09067      .   S
    C253   C248      1.40834      .   S
    C196   C197      1.39117      .   S
    C196   C195      1.40928      .   S
    C197   C198      1.40155      .   S
    C302   H129      1.08929      .   S
    C302   C303      1.40904      .   S
    C198   C199      1.40330      .   S
    C199   C200      1.39109      .   S
    C199   H46       1.08922      .   S
    C195   C200      1.40974      .   S
    C195   C192      1.47960      .   S
    C200   H47       1.09037      .   S
    C192   C193      1.40958      .   S
    C184   C88       1.47556  1_455   S
    C184   C183      1.40174  1_455   S
    C88    C188      1.40236  1_655   S
    N314   C182      1.34966  1_455   S
    N315   C187      1.35036  1_655   S
    C189   C194      1.40246      .   S
    C249   C248      1.40775      .   S
    C249   H84       1.08990      .   S
    C304   C303      1.40883      .   S
    C304   H130      1.09031      .   S
    C193   C194      1.38955      .   S
    C193   H42       1.08971      .   S
    C194   H43       1.08831      .   S
    C248   C245      1.46868      .   S
    C303   C306      1.47775      .   S
    C187   C188      1.38632      .   S
    C187   H36       1.08707      .   S
    C188   H37       1.08913      .   S
    C182   C183      1.38639      .   S
    C182   H32       1.08779      .   S
    C183   H33       1.08866      .   S
    C306   C307      1.40680      .   S
    C306   C311      1.40910      .   S
    C245   C244      1.40290      .   S
    C245   C246      1.41374      .   S
    H81    C244      1.07932      .   S
    H132   C307      1.08681      .   S
    H135   C311      1.09036      .   S
    H82    C246      1.09093      .   S
    C307   C308      1.39466      .   S
    C244   C243      1.40856      .   S
    C311   C310      1.37730      .   S
    C246   C247      1.39153      .   S
    H51    C206      1.09048      .   S
    C201   C206      1.40279      .   S
    C201   C202      1.40234      .   S
    C179   C180      1.40314      .   S
    C179   C178      1.40176      .   S
    H30    C180      1.09035      .   S
    C308   H133      1.08876      .   S
    C308   C309      1.40176      .   S
    H48    C202      1.08887      .   S
    C310   H134      1.09749      .   S
    C310   C309      1.40969      .   S
    H29    C178      1.08865      .   S
    C243   H80       1.08816      .   S
    C243   C242      1.40234      .   S
    C206   C205      1.39154      .   S
    C247   C242      1.40342      .   S
    C247   H83       1.09140      .   S
    C202   C203      1.38954      .   S
    C180   C181      1.39146      .   S
    C178   C177      1.38878      .   S
    C205   H50       1.09155      .   S
    C205   C204      1.40969      .   S
    C181   H31       1.09037      .   S
    C181   C176      1.40909      .   S
    C203   C204      1.40768      .   S
    C203   H49       1.09026      .   S
    C177   H28       1.08933      .   S
    C177   C176      1.40971      .   S
    H65    C226      1.09013      .   S
    H64    C225      1.09087      .   S
    H69    C231      1.08895      .   S
    H68    C230      1.08803      .   S
    C204   C207      1.47715      .   S
    C176   C173      1.47775      .   S
    C226   C225      1.38841      .   S
    C226   C227      1.40172  1_455   S
    C225   N316      1.34473  1_455   S
    C231   C230      1.38632      .   S
    C231   C232      1.40238  1_655   S
    C230   N317      1.35038  1_655   S
    H26    C174      1.09017      .   S
    H52    C208      1.08987      .   S
    H75    C123      1.08843      .   S
    H74    C122      1.08980      .   S
    C173   C174      1.40877      .   S
    C173   C172      1.40905      .   S
    C207   C208      1.40776      .   S
    C207   C212      1.40849      .   S
    C123   C122      1.38956      .   S
    C123   C235      1.40249      .   S
    C122   C121      1.40959      .   S
    C174   C175      1.39297      .   S
    C208   C209      1.38810      .   S
    C235   C119      1.40240      .   S
    N317   C234      1.34890      .   S
    N316   C229      1.34916      .   S
    C232   C227      1.47556  1_455   S
    C232   C233      1.40200      .   S
    C227   C228      1.40280      .   S
    H55    C212      1.09074      .   S
    H25    C172      1.08933      .   S
    H79    C241      1.09037      .   S
    C121   C236      1.47957      .   S
    C121   C120      1.40974      .   S
    H78    C240      1.08921      .   S
    C241   C236      1.40974      .   S
    C241   C240      1.39108      .   S
    C236   C237      1.40930      .   S
    C240   C239      1.40330      .   S
    C239   C238      1.40154      .   S
    C172   C171      1.38765      .   S
    C238   C237      1.39116      .   S
    C238   H77       1.08828      .   S
    C237   H76       1.09018      .   S
    C212   C211      1.39066      .   S
    C119   C120      1.39121      .   S
    C119   H72       1.08919      .   S
    C120   H73       1.08975      .   S
    C175   H27       1.08967      .   S
    C175   C170      1.40147      .   S
    C209   H53       1.08867      .   S
    C209   C210      1.40227      .   S
    C234   C233      1.38887      .   S
    C234   H71       1.08964      .   S
    C233   H70       1.08978      .   S
    C229   C228      1.38878      .   S
    C229   H67       1.08957      .   S
    C228   H66       1.08935      .   S
    C171   C170      1.40235      .   S
    C171   H24       1.08916      .   S
    C211   C210      1.40283      .   S
    C211   H54       1.09066      .   S
    H126   C298      1.08937      .   S
    H91    C255      1.08915      .   S
    H2     C139      1.08933      .   S
    H6     C144      1.08971      .   S
    H3     C140      1.08969      .   S
    H7     C145      1.08960      .   S
    C297   C298      1.40248      .   S
    C297   C296      1.40229      .   S
    C254   C255      1.40235      .   S
    C254   C259      1.40147      .   S
    C298   C299      1.39250      .   S
    C255   C256      1.38778      .   S
    H125   C296      1.08866      .   S
    C139   C140      1.38873      .   S
    C139   C138      1.40278      .   S
    H9     C148      1.08953      .   S
    C140   N312      1.34887      .   S
    C144   C145      1.38881      .   S
    C144   C143      1.40201      .   S
    C145   N313      1.34881      .   S
    H94    C259      1.08965      .   S
    H8     C147      1.08922      .   S
    C296   C295      1.38843      .   S
    C259   C258      1.39297      .   S
    C148   C147      1.39115      .   S
    C148   C149      1.40995      .   S
    C147   C146      1.40246      .   S
    H12    C153      1.09007      .   S
    H13    C154      1.08822      .   S
    C299   H127      1.09070      .   S
    C299   C294      1.40846      .   S
    C153   C154      1.39106      .   S
    C153   C152      1.40934      .   S
    C154   C155      1.40152      .   S
    C256   H92       1.08930      .   S
    C256   C257      1.40897      .   S
    C155   C156      1.40327      .   S
    C156   C157      1.39107      .   S
    C156   H14       1.08923      .   S
    C152   C157      1.40971      .   S
    C152   C149      1.47964  1_455   S
    C157   H15       1.09038      .   S
    C149   C150      1.40908      .   S
    C138   C143      1.47540      .   S
    C138   C137      1.40173      .   S
    C143   C142      1.40220      .   S
    N312   C136      1.34974      .   S
    N313   C141      1.35023      .   S
    C146   C151      1.40243      .   S
    C295   C294      1.40770      .   S
    C295   H124      1.08981      .   S
    C258   C257      1.40875      .   S
    C258   H93       1.09016      .   S
    C150   C151      1.38961      .   S
    C150   H10       1.09018      .   S
    C151   H11       1.08845      .   S
    C294   C291      1.47731      .   S
    C257   C260      1.47785      .   S
    C141   C142      1.38628      .   S
    C141   H4        1.08806      .   S
    C142   H5        1.08875      .   S
    C136   C137      1.38632      .   S
    C136   H0        1.08789      .   S
    C137   H1        1.08857      .   S
    C260   C261      1.40965      .   S
    C260   C265      1.40906      .   S
    H116   C290      1.08950      .   S
    C291   C290      1.40707      .   S
    C291   C292      1.40864      .   S
    H95    C261      1.08941      .   S
    H98    C265      1.09037      .   S
    H117   C292      1.09086      .   S
    C261   C262      1.38849      .   S
    C290   C289      1.38910      .   S
    C265   C264      1.39139      .   S
    H19    C163      1.09047      .   S
    C158   C163      1.40276      .   S
