# CIF file generated by openbabel 2.4.90, see http://openbabel.sf.net
data_I
_chemical_name_common ''
_cell_length_a 14.712
_cell_length_b 18.13
_cell_length_c 25.12
_cell_angle_alpha 89.962
_cell_angle_beta 90.097
_cell_angle_gamma 90.047
_space_group_name_H-M_alt 'P 1'
_space_group_name_Hall 'P 1'
loop_
    _symmetry_equiv_pos_as_xyz
    x,y,z
loop_
    _atom_site_label
    _atom_site_type_symbol
    _atom_site_fract_x
    _atom_site_fract_y
    _atom_site_fract_z
    _atom_site_occupancy
    Zn0     Zn   0.50416   0.25605   0.85161   1.000
    Zn1     Zn   0.46837   0.44736   0.85178   1.000
    Zn2     Zn   0.03534   0.43465   0.35190   1.000
    Zn3     Zn   0.00411   0.24393   0.35161   1.000
    Zn4     Zn   0.96810   0.05266   0.35180   1.000
    Zn5     Zn   0.96466   0.56531   0.64811   1.000
    Zn6     Zn   0.99589   0.75603   0.64839   1.000
    Zn7     Zn   0.03190   0.94730   0.64820   1.000
    Zn8     Zn   0.46475   0.93462   0.14808   1.000
    Zn9     Zn   0.49583   0.74392   0.14840   1.000
    Zn10    Zn   0.53163   0.55261   0.14822   1.000
    Zn11    Zn   0.53525   0.06535   0.85192   1.000
    C12     C    0.17954   0.34069   0.35809   1.000
    C13     C    0.67952   0.15936   0.85810   1.000
    C14     C    0.32411   0.35233   0.83917   1.000
    C15     C    0.42387   0.13464   0.92821   1.000
    C16     C    0.07882   0.12390   0.27600   1.000
    C17     C    0.45168   0.14266   0.76608   1.000
    C18     C    0.05160   0.12704   0.43842   1.000
    O19     O    0.58589   0.81266   0.10409   1.000
    O20     O    0.97453   0.93190   0.71770   1.000
    O21     O    0.90623   0.82703   0.68900   1.000
    O22     O    0.54670   0.91903   0.20841   1.000
    O23     O    0.50367   0.80034   0.22156   1.000
    O24     O    0.95728   0.93685   0.58355   1.000
    O25     O    0.98880   0.81510   0.57630   1.000
    C26     C    0.82378   0.14759   0.33922   1.000
    C27     C    0.92385   0.36527   0.42819   1.000
    C28     C    0.57905   0.37636   0.77610   1.000
    C29     C    0.95165   0.35739   0.26600   1.000
    C30     C    0.55163   0.37291   0.93845   1.000
    C31     C    0.82045   0.65928   0.64190   1.000
    C32     C    0.17622   0.85237   0.66078   1.000
    C33     C    0.07615   0.63469   0.57181   1.000
    C34     C    0.42094   0.62360   0.22390   1.000
    C35     C    0.04835   0.64257   0.73391   1.000
    C36     C    0.44837   0.62706   0.06155   1.000
    C37     C    0.32048   0.84061   0.14190   1.000
    C38     C    0.67588   0.64764   0.16083   1.000
    C39     C    0.57613   0.86533   0.07180   1.000
    C40     C    0.92117   0.87605   0.72393   1.000
    C41     C    0.54832   0.85731   0.23392   1.000
    C42     C    0.94839   0.87292   0.56158   1.000
    O43     O    0.66380   0.09281   0.84215   1.000
    O44     O    0.62048   0.19994   0.87981   1.000
    O45     O    0.33822   0.41972   0.85425   1.000
    O46     O    0.38566   0.30890   0.82434   1.000
    O47     O    0.47658   0.07847   0.92164   1.000
    O48     O    0.41411   0.18731   0.89591   1.000
    O49     O    0.02548   0.06806   0.28227   1.000
    O50     O    0.09377   0.17292   0.31071   1.000
    O51     O    0.45330   0.08094   0.79159   1.000
    O52     O    0.49633   0.19962   0.77845   1.000
    O53     O    0.04272   0.06312   0.41645   1.000
    O54     O    0.01120   0.18487   0.42370   1.000
    O55     O    0.16388   0.40724   0.34211   1.000
    O56     O    0.12045   0.30006   0.37980   1.000
    O57     O    0.83782   0.08016   0.35426   1.000
    O58     O    0.88536   0.19111   0.32441   1.000
    O59     O    0.97664   0.42148   0.42161   1.000
    O60     O    0.91408   0.31261   0.39593   1.000
    O61     O    0.52602   0.43232   0.78230   1.000
    O62     O    0.59381   0.32729   0.81076   1.000
    O63     O    0.95330   0.41907   0.29159   1.000
    O64     O    0.99630   0.30045   0.27847   1.000
    O65     O    0.54277   0.43687   0.91648   1.000
    O66     O    0.51126   0.31505   0.92371   1.000
    O67     O    0.83612   0.59272   0.65790   1.000
    O68     O    0.87955   0.69990   0.62018   1.000
    O69     O    0.16218   0.91980   0.64574   1.000
    O70     O    0.11463   0.80885   0.67559   1.000
    O71     O    0.02336   0.57849   0.57839   1.000
    O72     O    0.08592   0.68735   0.60407   1.000
    O73     O    0.47397   0.56765   0.21770   1.000
    O74     O    0.40618   0.67267   0.18925   1.000
    O75     O    0.04669   0.58089   0.70841   1.000
    O76     O    0.00000   0.69951   0.72153   1.000
    O77     O    0.45723   0.56310   0.08352   1.000
    O78     O    0.48874   0.68491   0.07629   1.000
    O79     O    0.33620   0.90716   0.15785   1.000
    O80     O    0.37952   0.80003   0.12019   1.000
    O81     O    0.66178   0.58024   0.14576   1.000
    O82     O    0.61434   0.69106   0.17566   1.000
    O83     O    0.52342   0.92150   0.07836   1.000
    Ts84    Ts   0.46981   0.48585   0.85150   1.000
    Ts85    Ts   0.03284   0.47297   0.35143   1.000
    Ts86    Ts   0.96956   0.01416   0.35152   1.000
    Ts87    Ts   0.96716   0.52699   0.64858   1.000
    Ts88    Ts   0.03044   0.98580   0.64848   1.000
    Ts89    Ts   0.46728   0.97293   0.14854   1.000
    Ts90    Ts   0.53019   0.51412   0.14850   1.000
    Ts91    Ts   0.53272   0.02704   0.85146   1.000
    Og92    Og   0.21101   0.33114   0.35593   1.000
    Og93    Og   0.71100   0.16891   0.85594   1.000
    Og94    Og   0.29207   0.34338   0.83907   1.000
    Og95    Og   0.40583   0.13464   0.94501   1.000
    Og96    Og   0.09493   0.12525   0.25861   1.000
    Og97    Og   0.43192   0.14299   0.74996   1.000
    Og98    Og   0.07217   0.12828   0.45415   1.000
    Og99    Og   0.79175   0.15653   0.33912   1.000
    Og100   Og   0.90579   0.36527   0.44498   1.000
    Og101   Og   0.59512   0.37500   0.75868   1.000
    Og102   Og   0.93190   0.35706   0.24991   1.000
    Og103   Og   0.57217   0.37168   0.95419   1.000
    Og104   Og   0.78899   0.66883   0.64406   1.000
    Og105   Og   0.20825   0.84343   0.66088   1.000
    Og106   Og   0.09421   0.63469   0.55502   1.000
    Og107   Og   0.40488   0.62496   0.24132   1.000
    Og108   Og   0.06811   0.64290   0.75003   1.000
    Og109   Og   0.42783   0.62829   0.04580   1.000
    Og110   Og   0.28900   0.83106   0.14406   1.000
    Og111   Og   0.70793   0.65659   0.16093   1.000
    Og112   Og   0.59417   0.86533   0.05500   1.000
    Og113   Og   0.90507   0.87471   0.74134   1.000
    Og114   Og   0.56807   0.85698   0.25004   1.000
    Og115   Og   0.92783   0.87169   0.54585   1.000
loop_
    _geom_bond_atom_site_label_1
    _geom_bond_atom_site_label_2
    _geom_bond_distance
    _geom_bond_site_symmetry_2
    _ccdc_geom_bond_type
    C36    O78       1.26052      .   S
    C36    O77       1.29049      .   S
    C39    O83       1.29127      .   S
    C39    O19       1.26065      .   S
    O78    Zn9       2.10669      .   S
    O83    Zn8       1.96848      .   S
    O77    Zn10      1.96713      .   S
    O19    Zn9       2.13262      .   S
    O80    C37       1.26358      .   S
    O80    Zn9       2.11257      .   S
    C37    O79       1.29213      .   S
    O81    Zn10      1.97989      .   S
    O81    C38       1.29585      .   S
    Zn8    O79       1.97097      .   S
    Zn8    O22       1.95550      .   S
    Zn10   O73       1.96115      .   S
    Zn9    O82       2.10344      .   S
    Zn9    O74       2.11213      .   S
    Zn9    O23       2.10686      .   S
    C38    O82       1.25748      .   S
    O74    C34       1.26291      .   S
    O22    C41       1.28927      .   S
    O73    C34       1.28995      .   S
    O23    C41       1.26223      .   S
    C29    O64       1.26302      .   S
    C29    O63       1.29046      .   S
    C16    O49       1.29029      .   S
    C16    O50       1.26431      .   S
    O64    Zn3       2.10614  1_655   S
    O49    Zn4       1.96084  1_455   S
    O63    Zn2       1.95583  1_655   S
    O50    Zn3       2.11232      .   S
    O58    C26       1.25755      .   S
    O58    Zn3       2.10479  1_655   S
    C26    O57       1.29594      .   S
    O55    Zn2       1.97159      .   S
    O55    C12       1.29213      .   S
    Zn3    O56       2.11195      .   S
    Zn3    O60       2.13403  1_455   S
    Zn3    O54       2.10570      .   S
    Zn4    O57       1.98190      .   S
    Zn4    O53       1.96783  1_655   S
    Zn2    O59       1.96812  1_455   S
    C12    O56       1.26326      .   S
    O60    C27       1.26063      .   S
    O53    C18       1.29043      .   S
    O59    C27       1.29138      .   S
    O54    C18       1.26053      .   S
    C42    O25       1.26053      .   S
    C42    O24       1.29043      .   S
    C33    O71       1.29138      .   S
    C33    O72       1.26064      .   S
    O25    Zn6       2.10569      .   S
    O71    Zn5       1.96835  1_455   S
    O24    Zn7       1.96785  1_655   S
    O72    Zn6       2.13401  1_455   S
    O68    C31       1.26337      .   S
    O68    Zn6       2.11215      .   S
    C31    O67       1.29230      .   S
    O69    Zn7       1.98193      .   S
    O69    C32       1.29594      .   S
    Zn5    O67       1.97157      .   S
    Zn5    O75       1.95563  1_655   S
    Zn7    O20       1.96017  1_455   S
    Zn6    O70       2.10477  1_655   S
    Zn6    O21       2.10868      .   S
    Zn6    O76       2.10394  1_655   S
    C32    O70       1.25754      .   S
    O21    C40       1.26815      .   S
    O75    C35       1.28935      .   S
    O20    C40       1.29016      .   S
    O76    C35       1.29163      .   S
    C17    O52       1.26228      .   S
    C17    O51       1.28927      .   S
    C28    O61       1.28996      .   S
    C28    O62       1.26306      .   S
    O52    Zn0       2.10686      .   S
    O61    Zn1       1.96113      .   S
    O51    Zn11      1.95550      .   S
    O62    Zn0       2.11212      .   S
    O46    C14       1.25750      .   S
    O46    Zn0       2.10352      .   S
    C14    O45       1.29591      .   S
    O43    Zn11      1.97099      .   S
    O43    C13       1.29215      .   S
    Zn0    O44       2.11250      .   S
    Zn0    O48       2.13246      .   S
    Zn0    O66       2.10649      .   S
    Zn1    O45       1.97989      .   S
    Zn1    O65       1.96713      .   S
    Zn11   O47       1.96848      .   S
    C13    O44       1.26355      .   S
    O48    C15       1.26081      .   S
    O65    C30       1.29048      .   S
    O47    C15       1.29131      .   S
    O66    C30       1.26049      .   S
    Zn1    Ts84      0.69805      .   S
    Zn2    Ts85      0.69578      .   S
    Zn4    Ts86      0.69846      .   S
    Zn5    Ts87      0.69579      .   S
    Zn7    Ts88      0.69844      .   S
    Zn8    Ts89      0.69560      .   S
    Zn10   Ts90      0.69806      .   S
    Zn11   Ts91      0.69559      .   S
    C12    Og92      0.49741      .   S
    C13    Og93      0.49732      .   S
    C14    Og94      0.49844      .   S
    C15    Og95      0.49885      .   S
    C16    Og96      0.49788      .   S
    C17    Og97      0.49806      .   S
    C18    Og98      0.49770      .   S
    C26    Og99      0.49852      .   S
    C27    Og100     0.49887      .   S
    C28    Og101     0.49839      .   S
    C29    Og102     0.49739      .   S
    C30    Og103     0.49769      .   S
    C31    Og104     0.49742      .   S
    C32    Og105     0.49852      .   S
    C33    Og106     0.49886      .   S
    C34    Og107     0.49839      .   S
    C35    Og108     0.49801      .   S
    C36    Og109     0.49795      .   S
    C37    Og110     0.49733      .   S
    C38    Og111     0.49845      .   S
    C39    Og112     0.49893      .   S
    C40    Og113     0.49839      .   S
    C41    Og114     0.49805      .   S
    C42    Og115     0.49770      .   S
