# CIF file generated by openbabel 2.4.90, see http://openbabel.sf.net
data_I
_chemical_name_common ''
_cell_length_a 14.712
_cell_length_b 18.13
_cell_length_c 25.12
_cell_angle_alpha 89.962
_cell_angle_beta 90.097
_cell_angle_gamma 90.047
_space_group_name_H-M_alt 'P 1'
_space_group_name_Hall 'P 1'
loop_
    _symmetry_equiv_pos_as_xyz
    x,y,z
loop_
    _atom_site_label
    _atom_site_type_symbol
    _atom_site_fract_x
    _atom_site_fract_y
    _atom_site_fract_z
    _atom_site_occupancy
    N0      N    0.75388   0.36121   0.10124   1.000
    N1      N    0.99954   0.74330   0.34997   1.000
    N2      N    0.25372   0.63274   0.39939   1.000
    N3      N    0.24630   0.13283   0.10056   1.000
    N4      N    0.00058   0.25701   0.84319   1.000
    N5      N    0.75370   0.86714   0.89943   1.000
    N6      N    0.24612   0.63876   0.89876   1.000
    N7      N    0.50041   0.24295   0.34323   1.000
    N8      N    0.25394   0.13882   0.60120   1.000
    N9      N    0.99942   0.74295   0.15680   1.000
    N10     N    0.74627   0.36723   0.60054   1.000
    N11     N    0.74605   0.86115   0.39874   1.000
    N12     N    0.00040   0.25667   0.65002   1.000
    N13     N    0.50044   0.24327   0.14999   1.000
    N14     N    0.49959   0.75701   0.65676   1.000
    N15     N    0.49957   0.75670   0.85000   1.000
    Zr16    Zr   0.99802   0.75643   0.64843   1.000
    O17     O    0.00654   0.94364   0.64888   1.000
    O18     O    0.08004   0.69867   0.73842   1.000
    O19     O    0.91491   0.81127   0.55840   1.000
    O20     O    0.08825   0.69507   0.56072   1.000
    O21     O    0.17997   0.77721   0.65364   1.000
    O22     O    0.91169   0.81351   0.73658   1.000
    O23     O    0.81722   0.73587   0.64969   1.000
    O24     O    0.99121   0.56934   0.64892   1.000
    Zr25    Zr   0.00180   0.24354   0.35155   1.000
    O26     O    0.00868   0.43063   0.35107   1.000
    O27     O    0.81994   0.22276   0.34635   1.000
    O28     O    0.91988   0.30129   0.26155   1.000
    O29     O    0.08822   0.18646   0.26339   1.000
    O30     O    0.08500   0.18870   0.44158   1.000
    O31     O    0.91166   0.30489   0.43925   1.000
    O32     O    0.18269   0.26410   0.35030   1.000
    O33     O    0.99336   0.05632   0.35111   1.000
    Zr34    Zr   0.50190   0.25649   0.85156   1.000
    O35     O    0.68278   0.23592   0.85030   1.000
    O36     O    0.41995   0.19874   0.76156   1.000
    O37     O    0.58831   0.31363   0.76341   1.000
    O38     O    0.50871   0.06939   0.85109   1.000
    O39     O    0.32011   0.27722   0.84633   1.000
    O40     O    0.49348   0.44369   0.85112   1.000
    O41     O    0.58503   0.31131   0.94160   1.000
    O42     O    0.41173   0.19511   0.93927   1.000
    Zr43    Zr   0.49809   0.74348   0.14844   1.000
    O44     O    0.49129   0.93058   0.14891   1.000
    O45     O    0.58827   0.80485   0.06073   1.000
    O46     O    0.41497   0.68866   0.05839   1.000
    O47     O    0.58005   0.80123   0.23843   1.000
    O48     O    0.50652   0.55628   0.14888   1.000
    O49     O    0.31722   0.76405   0.14970   1.000
    O50     O    0.67989   0.72274   0.15367   1.000
    O51     O    0.41169   0.68634   0.23658   1.000
loop_
    _geom_bond_atom_site_label_1
    _geom_bond_atom_site_label_2
    _geom_bond_distance
    _geom_bond_site_symmetry_2
    _ccdc_geom_bond_type
    Zr16   O17       3.39648  1_655   S
    N12    O17       5.67599  1_545   S
    Zr16   O18       2.76638  1_655   S
    N6     O18       4.83076      .   S
    Zr16   O19       2.75464      .   S
    N11    O19       4.79989      .   S
    Zr16   O20       2.80528  1_655   S
    N2     O20       4.86531      .   S
    Zr16   O21       2.70591  1_655   S
    N14    O21       4.71717      .   S
    Zr16   O22       2.75733      .   S
    N5     O22       4.80868      .   S
    Zr16   O23       2.68585      .   S
    N14    O23       4.69276      .   S
    Zr16   O24       3.39331      .   S
    N12    O24       5.67052  1_455   S
    Zr25   O26       3.39334      .   S
    N1     O26       5.67048  1_655   S
    Zr25   O27       2.70462  1_455   S
    N7     O27       4.71587      .   S
    Zr25   O28       2.76583  1_455   S
    N0     O28       4.82969      .   S
    Zr25   O29       2.75793      .   S
    N3     O29       4.80901      .   S
    Zr25   O30       2.75515      .   S
    N8     O30       4.79991      .   S
    Zr25   O31       2.80453  1_455   S
    N10    O31       4.86370      .   S
    Zr25   O32       2.68713      .   S
    N7     O32       4.69404      .   S
    Zr25   O33       3.39645  1_455   S
    N1     O33       5.67601  1_565   S
    Zr34   O35       2.68763      .   S
    N4     O35       4.69444  1_455   S
    Zr34   O36       2.76653      .   S
    N8     O36       4.83098      .   S
    Zr34   O37       2.75633      .   S
    N10    O37       4.80698      .   S
    Zr34   O38       3.39368      .   S
    N15    O38       5.67065  1_565   S
    Zr34   O39       2.70411      .   S
    N4     O39       4.71540      .   S
    Zr34   O40       3.39636      .   S
    N15    O40       5.67552      .   S
    Zr34   O41       2.75523      .   S
    N0     O41       4.79968  1_554   S
    Zr34   O42       2.80302      .   S
    N3     O42       4.86170  1_554   S
    Zr43   O44       3.39368      .   S
    N13    O44       5.67066  1_545   S
    Zr43   O45       2.80306      .   S
    N5     O45       4.86189  1_556   S
    Zr43   O46       2.75537      .   S
    N6     O46       4.79964  1_556   S
    Zr43   O47       2.76621      .   S
    N11    O47       4.83007      .   S
    Zr43   O48       3.39636      .   S
    N13    O48       5.67552      .   S
    Zr43   O49       2.68764      .   S
    N9     O49       4.69443  1_655   S
    Zr43   O50       2.70411      .   S
    N9     O50       4.71540      .   S
    Zr43   O51       2.75593      .   S
    N2     O51       4.80572      .   S
