# CIF file generated by openbabel 2.4.90, see http://openbabel.sf.net
data_I
_chemical_name_common ''
_cell_length_a 14.712
_cell_length_b 18.13
_cell_length_c 25.12
_cell_angle_alpha 89.962
_cell_angle_beta 90.097
_cell_angle_gamma 90.047
_space_group_name_H-M_alt 'P 1'
_space_group_name_Hall 'P 1'
loop_
    _symmetry_equiv_pos_as_xyz
    x,y,z
loop_
    _atom_site_label
    _atom_site_type_symbol
    _atom_site_fract_x
    _atom_site_fract_y
    _atom_site_fract_z
    _atom_site_occupancy
    C0      C    0.53525   0.06535   0.85192   1.000
    C1      C    0.50416   0.25605   0.85161   1.000
    C2      C    0.46837   0.44736   0.85178   1.000
    C3      C    0.03534   0.43465   0.35190   1.000
    C4      C    0.00411   0.24393   0.35161   1.000
    C5      C    0.96810   0.05266   0.35180   1.000
    C6      C    0.96466   0.56531   0.64811   1.000
    C7      C    0.99589   0.75603   0.64839   1.000
    C8      C    0.03190   0.94730   0.64820   1.000
    C9      C    0.46475   0.93462   0.14808   1.000
    C10     C    0.49583   0.74392   0.14840   1.000
    C11     C    0.53163   0.55261   0.14822   1.000
    C12     C    0.48486   0.94814   0.92896   1.000
    C13     C    0.46464   0.81134   0.93167   1.000
    C14     C    0.54965   0.80600   0.76689   1.000
    C15     C    0.56835   0.94258   0.77168   1.000
    C16     C    0.53244   0.56391   0.92555   1.000
    C17     C    0.55344   0.70086   0.92760   1.000
    C18     C    0.42870   0.70888   0.77163   1.000
    C19     C    0.41389   0.57193   0.77613   1.000
    C20     C    0.82472   0.09067   0.81279   1.000
    C21     C    0.98180   0.13859   0.80432   1.000
    C22     C    0.89969   0.33982   0.88233   1.000
    C23     C    0.74213   0.29188   0.88826   1.000
    C24     C    0.00932   0.38657   0.83594   1.000
    C25     C    0.16658   0.43347   0.83722   1.000
    C26     C    0.26886   0.21171   0.84126   1.000
    C27     C    0.11094   0.16357   0.84449   1.000
    C28     C    0.38227   0.01749   0.99103   1.000
    C29     C    0.29427   0.01710   0.07486   1.000
    C30     C    0.25806   0.25236   0.06166   1.000
    C31     C    0.34564   0.25143   0.97653   1.000
    C32     C    0.15685   0.02776   0.11046   1.000
    C33     C    0.07570   0.02345   0.19695   1.000
    C34     C    0.18730   0.23371   0.23980   1.000
    C35     C    0.26988   0.23917   0.15335   1.000
    C36     C    0.33420   0.03748   0.73480   1.000
    C37     C    0.23637   0.03584   0.65467   1.000
    C38     C    0.34413   0.24819   0.60867   1.000
    C39     C    0.43779   0.25017   0.69111   1.000
    C40     C    0.22483   0.01921   0.57295   1.000
    C41     C    0.12622   0.01298   0.49360   1.000
    C42     C    0.11551   0.24913   0.48632   1.000
    C43     C    0.21366   0.25704   0.56718   1.000
    C44     C    0.98495   0.55164   0.42888   1.000
    C45     C    0.96459   0.68838   0.43163   1.000
    C46     C    0.04974   0.69427   0.26687   1.000
    C47     C    0.06858   0.55773   0.27163   1.000
    C48     C    0.03227   0.93600   0.42550   1.000
    C49     C    0.05336   0.79909   0.42760   1.000
    C50     C    0.92858   0.79115   0.27162   1.000
    C51     C    0.91366   0.92806   0.27613   1.000
    C52     C    0.32497   0.40937   0.31272   1.000
    C53     C    0.48192   0.36140   0.30429   1.000
    C54     C    0.39928   0.16015   0.38241   1.000
    C55     C    0.24187   0.20814   0.38830   1.000
    C56     C    0.50886   0.11337   0.33610   1.000
    C57     C    0.66600   0.06644   0.33738   1.000
    C58     C    0.76880   0.28818   0.34123   1.000
    C59     C    0.61101   0.33636   0.34444   1.000
    C60     C    0.88238   0.48244   0.49082   1.000
    C61     C    0.79439   0.48293   0.57465   1.000
    C62     C    0.75777   0.24765   0.56182   1.000
    C63     C    0.84534   0.24848   0.47667   1.000
    C64     C    0.65703   0.47231   0.61030   1.000
    C65     C    0.57599   0.47673   0.69681   1.000
    C66     C    0.68715   0.26650   0.73995   1.000
    C67     C    0.76963   0.26092   0.65347   1.000
    C68     C    0.83412   0.46243   0.23480   1.000
    C69     C    0.73622   0.46406   0.15473   1.000
    C70     C    0.84413   0.25201   0.10868   1.000
    C71     C    0.93781   0.25001   0.19111   1.000
    C72     C    0.72462   0.48082   0.07301   1.000
    C73     C    0.62604   0.48700   0.99366   1.000
    C74     C    0.61558   0.25084   0.98636   1.000
    C75     C    0.71371   0.24298   0.06722   1.000
    C76     C    0.01504   0.44832   0.57112   1.000
    C77     C    0.03540   0.31158   0.56830   1.000
    C78     C    0.95027   0.30570   0.73313   1.000
    C79     C    0.93143   0.44224   0.72837   1.000
    C80     C    0.96772   0.06397   0.57446   1.000
    C81     C    0.94663   0.20087   0.57241   1.000
    C82     C    0.07142   0.20881   0.72838   1.000
    C83     C    0.08634   0.07190   0.72387   1.000
    C84     C    0.67503   0.59059   0.68728   1.000
    C85     C    0.51808   0.63856   0.69571   1.000
    C86     C    0.60071   0.83982   0.61759   1.000
    C87     C    0.75813   0.79182   0.61169   1.000
    C88     C    0.49114   0.88659   0.66391   1.000
    C89     C    0.33400   0.93352   0.66263   1.000
    C90     C    0.23120   0.71179   0.65877   1.000
    C91     C    0.38899   0.66361   0.65556   1.000
    C92     C    0.11761   0.51753   0.50910   1.000
    C93     C    0.20561   0.51704   0.42535   1.000
    C94     C    0.24222   0.75232   0.43818   1.000
    C95     C    0.15465   0.75149   0.52333   1.000
    C96     C    0.34296   0.52765   0.38970   1.000
    C97     C    0.42400   0.52323   0.30319   1.000
    C98     C    0.31285   0.73346   0.26005   1.000
    C99     C    0.23037   0.73904   0.34653   1.000
    C100    C    0.16588   0.53753   0.76516   1.000
    C101    C    0.26378   0.53591   0.84527   1.000
    C102    C    0.15587   0.74796   0.89132   1.000
    C103    C    0.06219   0.74996   0.80889   1.000
    C104    C    0.27539   0.51915   0.92699   1.000
    C105    C    0.37396   0.51297   0.00634   1.000
    C106    C    0.38442   0.74913   0.01364   1.000
    C107    C    0.28630   0.75699   0.93278   1.000
    C108    C    0.51514   0.05183   0.07105   1.000
    C109    C    0.53536   0.18862   0.06833   1.000
    C110    C    0.45035   0.19397   0.23311   1.000
    C111    C    0.43166   0.05739   0.22833   1.000
    C112    C    0.46756   0.43605   0.07445   1.000
    C113    C    0.44656   0.29910   0.07239   1.000
    C114    C    0.57131   0.29108   0.22830   1.000
    C115    C    0.58612   0.42803   0.22380   1.000
    C116    C    0.17528   0.90930   0.18721   1.000
    C117    C    0.01820   0.86138   0.19568   1.000
    C118    C    0.10031   0.66014   0.11768   1.000
    C119    C    0.25787   0.70808   0.11175   1.000
    C120    C    0.99068   0.61339   0.16407   1.000
    C121    C    0.83342   0.56650   0.16279   1.000
    C122    C    0.73113   0.78826   0.15874   1.000
    C123    C    0.88905   0.83640   0.15551   1.000
    C124    C    0.61773   0.98248   0.00897   1.000
    C125    C    0.70573   0.98287   0.92514   1.000
    C126    C    0.74195   0.74761   0.93834   1.000
    C127    C    0.65436   0.74854   0.02347   1.000
    C128    C    0.84315   0.97221   0.88954   1.000
    C129    C    0.92430   0.97651   0.80305   1.000
    C130    C    0.81270   0.76624   0.76020   1.000
    C131    C    0.73012   0.76079   0.84665   1.000
    C132    C    0.66580   0.96249   0.26520   1.000
    C133    C    0.76363   0.96413   0.34533   1.000
    C134    C    0.65586   0.75178   0.39134   1.000
    C135    C    0.56220   0.74980   0.30890   1.000
    C136    C    0.77516   0.98075   0.42700   1.000
    C137    C    0.87378   0.98699   0.50641   1.000
    C138    C    0.88449   0.75083   0.51360   1.000
    C139    C    0.78633   0.74293   0.43283   1.000
    C140    C    0.49881   0.91410   0.89428   1.000
    C141    C    0.48757   0.83818   0.89531   1.000
    C142    C    0.50483   0.79718   0.84914   1.000
    C143    C    0.53379   0.83525   0.80358   1.000
    C144    C    0.54493   0.91124   0.80606   1.000
    C145    C    0.51070   0.59859   0.89254   1.000
    C146    C    0.52192   0.67451   0.89328   1.000
    C147    C    0.49363   0.71630   0.84929   1.000
    C148    C    0.45405   0.67896   0.80623   1.000
    C149    C    0.44479   0.60279   0.80868   1.000
    C150    C    0.67952   0.15936   0.85810   1.000
    C151    C    0.77395   0.18801   0.85163   1.000
    C152    C    0.84205   0.14527   0.82778   1.000
    C153    C    0.93015   0.17250   0.82339   1.000
    C154    C    0.95326   0.24303   0.84279   1.000
    C155    C    0.88372   0.28569   0.86590   1.000
    C156    C    0.79552   0.25887   0.87015   1.000
    C157    C    0.04755   0.27124   0.84011   1.000
    C158    C    0.06555   0.34753   0.83780   1.000
    C159    C    0.15419   0.37430   0.83805   1.000
    C160    C    0.22799   0.32547   0.83887   1.000
    C161    C    0.21118   0.24928   0.83980   1.000
    C162    C    0.12244   0.22280   0.84102   1.000
    C163    C    0.32411   0.35233   0.83917   1.000
    C164    C    0.42387   0.13464   0.92821   1.000
    C165    C    0.36974   0.13465   0.97860   1.000
    C166    C    0.35395   0.06874   0.00632   1.000
    C167    C    0.30406   0.06865   0.05324   1.000
    C168    C    0.26990   0.13478   0.07460   1.000
    C169    C    0.28591   0.20075   0.04650   1.000
    C170    C    0.33424   0.20067   0.99887   1.000
    C171    C    0.21970   0.13373   0.12550   1.000
    C172    C    0.16461   0.07292   0.13872   1.000
    C173    C    0.11889   0.07023   0.18699   1.000
    C174    C    0.12714   0.12794   0.22383   1.000
    C175    C    0.18134   0.18907   0.21100   1.000
    C176    C    0.22663   0.19193   0.16240   1.000
    C177    C    0.07882   0.12390   0.27600   1.000
    C178    C    0.45168   0.14266   0.76608   1.000
    C179    C    0.39242   0.14364   0.71772   1.000
    C180    C    0.33528   0.08352   0.70693   1.000
    C181    C    0.28100   0.08281   0.66170   1.000
    C182    C    0.28295   0.14184   0.62520   1.000
    C183    C    0.33994   0.20229   0.63662   1.000
    C184    C    0.39348   0.20351   0.68240   1.000
    C185    C    0.22638   0.13879   0.57658   1.000
    C186    C    0.20100   0.07019   0.55471   1.000
    C187    C    0.14559   0.06631   0.50998   1.000
    C188    C    0.11330   0.13076   0.48560   1.000
    C189    C    0.13954   0.19942   0.50631   1.000
    C190    C    0.19530   0.20324   0.55102   1.000
    C191    C    0.05160   0.12704   0.43842   1.000
    C192    C    0.99892   0.58579   0.39422   1.000
    C193    C    0.98756   0.66167   0.39526   1.000
    C194    C    0.00485   0.70283   0.34911   1.000
    C195    C    0.03387   0.66491   0.30355   1.000
    C196    C    0.04510   0.58893   0.30602   1.000
    C197    C    0.01053   0.90135   0.39254   1.000
    C198    C    0.02183   0.82545   0.39326   1.000
    C199    C    0.99354   0.78369   0.34927   1.000
    C200    C    0.95393   0.82105   0.30622   1.000
    C201    C    0.94459   0.89720   0.30869   1.000
    C202    C    0.17954   0.34069   0.35809   1.000
    C203    C    0.27393   0.31203   0.35162   1.000
    C204    C    0.34215   0.35475   0.32775   1.000
    C205    C    0.43018   0.32750   0.32338   1.000
    C206    C    0.45313   0.25694   0.34282   1.000
    C207    C    0.38347   0.21430   0.36600   1.000
    C208    C    0.29534   0.24116   0.37018   1.000
    C209    C    0.54734   0.22871   0.34015   1.000
    C210    C    0.56518   0.15241   0.33800   1.000
    C211    C    0.65376   0.12562   0.33817   1.000
    C212    C    0.72768   0.17442   0.33893   1.000
    C213    C    0.71103   0.25061   0.33980   1.000
    C214    C    0.62235   0.27712   0.34102   1.000
    C215    C    0.82378   0.14759   0.33922   1.000
    C216    C    0.92385   0.36527   0.42819   1.000
    C217    C    0.86966   0.36527   0.47856   1.000
    C218    C    0.85398   0.43121   0.50619   1.000
    C219    C    0.80409   0.43135   0.55311   1.000
    C220    C    0.76982   0.36524   0.57461   1.000
    C221    C    0.78571   0.29924   0.54650   1.000
    C222    C    0.83404   0.29926   0.49893   1.000
    C223    C    0.71965   0.36634   0.62549   1.000
    C224    C    0.66471   0.42718   0.63863   1.000
    C225    C    0.61906   0.42993   0.68690   1.000
    C226    C    0.62724   0.37227   0.72383   1.000
    C227    C    0.68127   0.31111   0.71100   1.000
    C228    C    0.72649   0.30818   0.66248   1.000
    C229    C    0.57905   0.37636   0.77610   1.000
    C230    C    0.95165   0.35739   0.26600   1.000
    C231    C    0.89239   0.35641   0.21774   1.000
    C232    C    0.83520   0.41645   0.20697   1.000
    C233    C    0.78091   0.41716   0.16174   1.000
    C234    C    0.78288   0.35821   0.12524   1.000
    C235    C    0.83992   0.29784   0.13664   1.000
    C236    C    0.89346   0.29661   0.18242   1.000
    C237    C    0.72630   0.36124   0.07662   1.000
    C238    C    0.70084   0.42983   0.05476   1.000
    C239    C    0.64547   0.43368   0.01003   1.000
    C240    C    0.61326   0.36921   0.98566   1.000
    C241    C    0.63955   0.30057   0.00634   1.000
    C242    C    0.69529   0.29678   0.05106   1.000
    C243    C    0.55163   0.37291   0.93845   1.000
    C244    C    0.00000   0.41418   0.60578   1.000
    C245    C    0.01243   0.33829   0.60474   1.000
    C246    C    0.99515   0.29713   0.65089   1.000
    C247    C    0.96614   0.33506   0.69645   1.000
    C248    C    0.95490   0.41103   0.69399   1.000
    C249    C    0.98946   0.09861   0.60747   1.000
    C250    C    0.97816   0.17451   0.60674   1.000
    C251    C    0.00645   0.21627   0.65073   1.000
    C252    C    0.04607   0.17891   0.69378   1.000
    C253    C    0.05540   0.10276   0.69132   1.000
    C254    C    0.82045   0.65928   0.64190   1.000
    C255    C    0.72606   0.68793   0.64838   1.000
    C256    C    0.65785   0.64521   0.67225   1.000
    C257    C    0.56981   0.67246   0.67660   1.000
    C258    C    0.54687   0.74302   0.65719   1.000
    C259    C    0.61653   0.78566   0.63401   1.000
    C260    C    0.70466   0.75880   0.62982   1.000
    C261    C    0.45266   0.77125   0.65985   1.000
    C262    C    0.43482   0.84755   0.66201   1.000
    C263    C    0.34624   0.87435   0.66180   1.000
    C264    C    0.27232   0.82554   0.66107   1.000
    C265    C    0.28897   0.74935   0.66018   1.000
    C266    C    0.37764   0.72284   0.65898   1.000
    C267    C    0.17622   0.85237   0.66078   1.000
    C268    C    0.07615   0.63469   0.57181   1.000
    C269    C    0.13033   0.63470   0.52144   1.000
    C270    C    0.14601   0.56875   0.49381   1.000
    C271    C    0.19590   0.56861   0.44600   1.000
    C272    C    0.23018   0.63472   0.42500   1.000
    C273    C    0.21428   0.70072   0.45343   1.000
    C274    C    0.16595   0.70071   0.50100   1.000
    C275    C    0.28034   0.63363   0.37451   1.000
    C276    C    0.33528   0.57278   0.36137   1.000
    C277    C    0.38093   0.57003   0.31310   1.000
    C278    C    0.37275   0.62769   0.27617   1.000
    C279    C    0.31873   0.68886   0.28893   1.000
    C280    C    0.27350   0.69178   0.33753   1.000
    C281    C    0.42094   0.62360   0.22390   1.000
    C282    C    0.04835   0.64257   0.73391   1.000
    C283    C    0.10762   0.64356   0.78226   1.000
    C284    C    0.16481   0.58352   0.79303   1.000
    C285    C    0.21910   0.58281   0.83826   1.000
    C286    C    0.21713   0.64176   0.87476   1.000
    C287    C    0.16008   0.70213   0.86336   1.000
    C288    C    0.10654   0.70336   0.81758   1.000
    C289    C    0.27370   0.63873   0.92338   1.000
    C290    C    0.29916   0.57014   0.94524   1.000
    C291    C    0.35454   0.56629   0.98997   1.000
    C292    C    0.38674   0.63076   0.01430   1.000
    C293    C    0.36045   0.69940   0.99366   1.000
    C294    C    0.30471   0.70319   0.94894   1.000
    C295    C    0.44837   0.62706   0.06155   1.000
    C296    C    0.50119   0.08587   0.10572   1.000
    C297    C    0.51244   0.16178   0.10469   1.000
    C298    C    0.49517   0.20279   0.15086   1.000
    C299    C    0.46622   0.16472   0.19642   1.000
    C300    C    0.45508   0.08873   0.19395   1.000
    C301    C    0.48930   0.40137   0.10746   1.000
    C302    C    0.47808   0.32546   0.10672   1.000
    C303    C    0.50637   0.28367   0.15070   1.000
    C304    C    0.54596   0.32101   0.19377   1.000
    C305    C    0.55521   0.39718   0.19132   1.000
    C306    C    0.32048   0.84061   0.14190   1.000
    C307    C    0.22604   0.81196   0.14837   1.000
    C308    C    0.15795   0.85470   0.17222   1.000
    C309    C    0.06985   0.82747   0.17661   1.000
    C310    C    0.04674   0.75693   0.15722   1.000
    C311    C    0.11628   0.71428   0.13406   1.000
    C312    C    0.20447   0.74110   0.12986   1.000
    C313    C    0.95245   0.72873   0.15990   1.000
    C314    C    0.93445   0.65244   0.16212   1.000
    C315    C    0.84581   0.62567   0.16195   1.000
    C316    C    0.77201   0.67449   0.16114   1.000
    C317    C    0.78882   0.75068   0.16018   1.000
    C318    C    0.87755   0.77717   0.15898   1.000
    C319    C    0.67588   0.64764   0.16083   1.000
    C320    C    0.57613   0.86533   0.07180   1.000
    C321    C    0.63026   0.86532   0.02140   1.000
    C322    C    0.64605   0.93123   0.99360   1.000
    C323    C    0.69594   0.93132   0.94670   1.000
    C324    C    0.73010   0.86519   0.92537   1.000
    C325    C    0.71409   0.79922   0.95350   1.000
    C326    C    0.66576   0.79929   0.00114   1.000
    C327    C    0.78030   0.86623   0.87449   1.000
    C328    C    0.83539   0.92705   0.86128   1.000
    C329    C    0.88111   0.92973   0.81301   1.000
    C330    C    0.87286   0.87202   0.77617   1.000
    C331    C    0.81866   0.81089   0.78900   1.000
    C332    C    0.77337   0.80803   0.83759   1.000
    C333    C    0.92117   0.87605   0.72393   1.000
    C334    C    0.54832   0.85731   0.23392   1.000
    C335    C    0.60758   0.85632   0.28228   1.000
    C336    C    0.66472   0.91645   0.29300   1.000
    C337    C    0.71899   0.91715   0.33831   1.000
    C338    C    0.71705   0.85813   0.37481   1.000
    C339    C    0.66005   0.79768   0.36338   1.000
    C340    C    0.60651   0.79646   0.31760   1.000
    C341    C    0.77361   0.86118   0.42343   1.000
    C342    C    0.79900   0.92977   0.44500   1.000
    C343    C    0.85440   0.93365   0.49002   1.000
    C344    C    0.88670   0.86921   0.51440   1.000
    C345    C    0.86045   0.80054   0.49300   1.000
    C346    C    0.80469   0.79673   0.44899   1.000
    C347    C    0.94839   0.87292   0.56158   1.000
    C348    C    0.52766   0.95042   0.85053   1.000
    C349    C    0.47270   0.56281   0.85095   1.000
    C350    C    0.02785   0.54961   0.35048   1.000
    C351    C    0.97247   0.93715   0.35096   1.000
    C352    C    0.97215   0.45036   0.64952   1.000
    C353    C    0.02752   0.06281   0.64905   1.000
    C354    C    0.47234   0.04954   0.14947   1.000
    C355    C    0.52731   0.43715   0.14905   1.000
    C356    C    0.66380   0.09281   0.84215   1.000
    C357    C    0.62048   0.19994   0.87981   1.000
    C358    C    0.33822   0.41972   0.85425   1.000
    C359    C    0.38566   0.30890   0.82434   1.000
    C360    C    0.47658   0.07847   0.92164   1.000
    C361    C    0.41411   0.18731   0.89591   1.000
    C362    C    0.02548   0.06806   0.28227   1.000
    C363    C    0.09377   0.17292   0.31071   1.000
    C364    C    0.45330   0.08094   0.79159   1.000
    C365    C    0.49633   0.19962   0.77845   1.000
    C366    C    0.04272   0.06312   0.41645   1.000
    C367    C    0.01120   0.18487   0.42370   1.000
    C368    C    0.16388   0.40724   0.34211   1.000
    C369    C    0.12045   0.30006   0.37980   1.000
    C370    C    0.83782   0.08016   0.35426   1.000
    C371    C    0.88536   0.19111   0.32441   1.000
    C372    C    0.97664   0.42148   0.42161   1.000
    C373    C    0.91408   0.31261   0.39593   1.000
    C374    C    0.52602   0.43232   0.78230   1.000
    C375    C    0.59381   0.32729   0.81076   1.000
    C376    C    0.95330   0.41907   0.29159   1.000
    C377    C    0.99630   0.30045   0.27847   1.000
    C378    C    0.54277   0.43687   0.91648   1.000
    C379    C    0.51126   0.31505   0.92371   1.000
    C380    C    0.83612   0.59272   0.65790   1.000
    C381    C    0.87955   0.69990   0.62018   1.000
    C382    C    0.16218   0.91980   0.64574   1.000
    C383    C    0.11463   0.80885   0.67559   1.000
    C384    C    0.02336   0.57849   0.57839   1.000
    C385    C    0.08592   0.68735   0.60407   1.000
    C386    C    0.47397   0.56765   0.21770   1.000
    C387    C    0.40618   0.67267   0.18925   1.000
    C388    C    0.04669   0.58089   0.70841   1.000
    C389    C    0.00000   0.69951   0.72153   1.000
    C390    C    0.45723   0.56310   0.08352   1.000
    C391    C    0.48874   0.68491   0.07629   1.000
    C392    C    0.33620   0.90716   0.15785   1.000
    C393    C    0.37952   0.80003   0.12019   1.000
    C394    C    0.66178   0.58024   0.14576   1.000
    C395    C    0.61434   0.69106   0.17566   1.000
    C396    C    0.52342   0.92150   0.07836   1.000
    C397    C    0.58589   0.81266   0.10409   1.000
    C398    C    0.97453   0.93190   0.71770   1.000
    C399    C    0.90623   0.82703   0.68900   1.000
    C400    C    0.54670   0.91903   0.20841   1.000
    C401    C    0.50367   0.80034   0.22156   1.000
    C402    C    0.95728   0.93685   0.58355   1.000
    C403    C    0.98880   0.81510   0.57630   1.000
    O404    O    0.64801   0.83231   0.01127   1.000
    O405    O    0.66006   0.77391   0.01230   1.000
    O406    O    0.68992   0.79925   0.97732   1.000
    O407    O    0.32900   0.06869   0.02978   1.000
    O408    O    0.36185   0.10169   0.99246   1.000
    O409    O    0.36811   0.04311   0.99867   1.000
    O410    O    0.66742   0.29867   0.02870   1.000
    O411    O    0.62640   0.33489   0.99600   1.000
    O412    O    0.62757   0.27570   0.99635   1.000
    O413    O    0.36425   0.53963   0.99815   1.000
    O414    O    0.63189   0.95685   0.00129   1.000
    O415    O    0.67315   0.43175   0.03239   1.000
    O416    O    0.62936   0.40145   0.99784   1.000
    O417    O    0.63575   0.46034   0.00184   1.000
    O418    O    0.37243   0.72427   0.00365   1.000
    O419    O    0.41756   0.62891   0.03792   1.000
    O420    O    0.37064   0.59852   0.00213   1.000
    O421    O    0.37360   0.66508   0.00398   1.000
    O422    O    0.60319   0.86532   0.04660   1.000
    O423    O    0.63815   0.89827   0.00750   1.000
    O424    O    0.27198   0.22655   0.05408   1.000
    O425    O    0.27790   0.16776   0.06055   1.000
    O426    O    0.31008   0.20071   0.02268   1.000
    O427    O    0.70450   0.26988   0.05914   1.000
    O428    O    0.71080   0.32901   0.06384   1.000
    O429    O    0.28698   0.10171   0.06392   1.000
    O430    O    0.29917   0.04287   0.06405   1.000
    O431    O    0.71273   0.45532   0.06388   1.000
    O432    O    0.71357   0.39553   0.06569   1.000
    O433    O    0.46856   0.65599   0.06892   1.000
    O434    O    0.45280   0.59508   0.07253   1.000
    O435    O    0.52390   0.17520   0.08651   1.000
    O436    O    0.50816   0.06885   0.08838   1.000
    O437    O    0.54978   0.89341   0.07508   1.000
    O438    O    0.58101   0.83899   0.08794   1.000
    O439    O    0.46232   0.31228   0.08955   1.000
    O440    O    0.47843   0.41871   0.09095   1.000
    O441    O    0.24480   0.13426   0.10005   1.000
    O442    O    0.49229   0.71442   0.11234   1.000
    O443    O    0.75459   0.35972   0.10093   1.000
    O444    O    0.49409   0.92806   0.11322   1.000
    O445    O    0.49443   0.55785   0.11587   1.000
    O446    O    0.54086   0.77829   0.12624   1.000
    O447    O    0.50681   0.12383   0.10520   1.000
    O448    O    0.50380   0.18229   0.12777   1.000
    O449    O    0.48677   0.06771   0.12759   1.000
    O450    O    0.48369   0.36342   0.10709   1.000
    O451    O    0.49223   0.30456   0.12871   1.000
    O452    O    0.50831   0.41926   0.12825   1.000
    O453    O    0.84203   0.27492   0.12266   1.000
    O454    O    0.16073   0.05034   0.12459   1.000
    O455    O    0.23117   0.72459   0.12080   1.000
    O456    O    0.10829   0.68721   0.12587   1.000
    O457    O    0.35000   0.82032   0.13104   1.000
    O458    O    0.43768   0.77197   0.13429   1.000
    O459    O    0.81140   0.32802   0.13094   1.000
    O460    O    0.78189   0.38768   0.14349   1.000
    O461    O    0.19215   0.10333   0.13211   1.000
    O462    O    0.22316   0.16283   0.14395   1.000
    O463    O    0.16037   0.72769   0.13196   1.000
    O464    O    0.21526   0.77653   0.13911   1.000
    O465    O    0.08151   0.73560   0.14564   1.000
    O466    O    0.86669   0.29722   0.15953   1.000
    O467    O    0.14175   0.07158   0.16285   1.000
    O468    O    0.27326   0.82629   0.14513   1.000
    O469    O    0.32834   0.87389   0.14987   1.000
    O470    O    0.59670   0.56642   0.14699   1.000
    O471    O    0.66883   0.61394   0.15329   1.000
    O472    O    0.46855   0.99208   0.14877   1.000
    O473    O    0.40048   0.92089   0.15296   1.000
    O474    O    0.50573   0.92682   0.17824   1.000
    O475    O    0.52947   0.49488   0.14863   1.000
    O476    O    0.50280   0.56013   0.18296   1.000
    O477    O    0.19200   0.83333   0.16030   1.000
    O478    O    0.55509   0.71749   0.16203   1.000
    O479    O    0.45101   0.70830   0.16882   1.000
    O480    O    0.49975   0.77213   0.18498   1.000
    O481    O    0.54126   0.41716   0.17018   1.000
    O482    O    0.46371   0.06914   0.17171   1.000
    O483    O    0.50077   0.24323   0.15078   1.000
    O484    O    0.52616   0.30234   0.17223   1.000
    O485    O    0.48069   0.18376   0.17364   1.000
    O486    O    0.24825   0.21555   0.15787   1.000
    O487    O    0.75856   0.44061   0.15823   1.000
    O488    O    0.88330   0.80679   0.15724   1.000
    O489    O    0.99959   0.74283   0.15856   1.000
    O490    O    0.05829   0.79220   0.16691   1.000
    O491    O    0.75997   0.76947   0.15946   1.000
    O492    O    0.91500   0.75295   0.15944   1.000
    O493    O    0.83319   0.76393   0.15958   1.000
    O494    O    0.94345   0.69059   0.16101   1.000
    O495    O    0.78041   0.71259   0.16066   1.000
    O496    O    0.72395   0.66107   0.16098   1.000
    O497    O    0.64511   0.66935   0.16825   1.000
    O498    O    0.80891   0.65008   0.16154   1.000
    O499    O    0.80805   0.41680   0.18435   1.000
    O500    O    0.89013   0.63905   0.16204   1.000
    O501    O    0.83962   0.59608   0.16237   1.000
    O502    O    0.96256   0.63292   0.16309   1.000
    O503    O    0.20398   0.19050   0.18670   1.000
    O504    O    0.11390   0.84108   0.17441   1.000
    O505    O    0.16661   0.88200   0.17972   1.000
    O506    O    0.04402   0.84442   0.18614   1.000
    O507    O    0.91564   0.27331   0.18676   1.000
    O508    O    0.89292   0.32651   0.20008   1.000
    O509    O    0.09729   0.04684   0.19197   1.000
    O510    O    0.12301   0.09909   0.20541   1.000
    O511    O    0.41356   0.64814   0.20658   1.000
    O512    O    0.55058   0.35909   0.19254   1.000
    O513    O    0.57066   0.41260   0.20756   1.000
    O514    O    0.55863   0.30605   0.21104   1.000
    O515    O    0.46065   0.12673   0.19518   1.000
    O516    O    0.44337   0.07306   0.21114   1.000
    O517    O    0.45828   0.17935   0.21476   1.000
    O518    O    0.86379   0.38643   0.21235   1.000
    O519    O    0.83466   0.43944   0.22088   1.000
    O520    O    0.54751   0.88817   0.22116   1.000
    O521    O    0.15424   0.15850   0.21741   1.000
    O522    O    0.18432   0.21139   0.22540   1.000
    O523    O    0.44746   0.59562   0.22080   1.000
    O524    O    0.92202   0.35690   0.24187   1.000
    O525    O    0.52600   0.82883   0.22774   1.000
    O526    O    0.10298   0.12592   0.24991   1.000
    O527    O    0.39685   0.62565   0.25003   1.000
    O528    O    0.57795   0.85682   0.25810   1.000
    O529    O    0.31579   0.71116   0.27449   1.000
    O530    O    0.66526   0.93947   0.27910   1.000
    O531    O    0.97398   0.32892   0.27224   1.000
    O532    O    0.95248   0.38823   0.27879   1.000
    O533    O    0.04180   0.67959   0.28521   1.000
    O534    O    0.94125   0.80610   0.28892   1.000
    O535    O    0.05684   0.57333   0.28882   1.000
    O536    O    0.05215   0.09598   0.27914   1.000
    O537    O    0.08630   0.14841   0.29335   1.000
    O538    O    0.92913   0.91263   0.29241   1.000
    O539    O    0.34574   0.65827   0.28255   1.000
    O540    O    0.37684   0.59886   0.29463   1.000
    O541    O    0.00021   0.27219   0.31504   1.000
    O542    O    0.99679   0.06036   0.31703   1.000
    O543    O    0.63615   0.88638   0.28764   1.000
    O544    O    0.60705   0.82639   0.29994   1.000
    O545    O    0.29612   0.69032   0.31323   1.000
    O546    O    0.99432   0.42686   0.32175   1.000
    O547    O    0.69186   0.91680   0.31565   1.000
    O548    O    0.40247   0.54663   0.30814   1.000
    O549    O    0.03948   0.62692   0.30478   1.000
    O550    O    0.01936   0.68387   0.32633   1.000
    O551    O    0.45605   0.34445   0.31383   1.000
    O552    O    0.03647   0.56927   0.32825   1.000
    O553    O    0.94926   0.85913   0.30745   1.000
    O554    O    0.97373   0.80237   0.32774   1.000
    O555    O    0.95853   0.91718   0.32982   1.000
    O556    O    0.58436   0.77313   0.31325   1.000
    O557    O    0.04894   0.20843   0.33116   1.000
    O558    O    0.33356   0.38206   0.32023   1.000
    O559    O    0.35811   0.57141   0.33724   1.000
    O560    O    0.63328   0.79707   0.34049   1.000
    O561    O    0.38617   0.34113   0.32556   1.000
    O562    O    0.44166   0.29222   0.33310   1.000
    O563    O    0.85457   0.16935   0.33182   1.000
    O564    O    0.94474   0.21752   0.33801   1.000
    O565    O    0.30804   0.33339   0.33968   1.000
    O566    O    0.53702   0.13289   0.33705   1.000
    O567    O    0.65988   0.09603   0.33777   1.000
    O568    O    0.25194   0.71541   0.34203   1.000
    O569    O    0.27692   0.66271   0.35602   1.000
    O570    O    0.60947   0.13901   0.33808   1.000
    O571    O    0.55626   0.19056   0.33908   1.000
    O572    O    0.69072   0.15002   0.33855   1.000
    O573    O    0.74131   0.94064   0.34182   1.000
    O574    O    0.71802   0.88764   0.35656   1.000
    O575    O    0.77573   0.16101   0.33908   1.000
    O576    O    0.71936   0.21252   0.33936   1.000
    O577    O    0.83080   0.11387   0.34674   1.000
    O578    O    0.66669   0.26387   0.34041   1.000
    O579    O    0.73992   0.26939   0.34051   1.000
    O580    O    0.58485   0.25291   0.34058   1.000
    O581    O    0.50023   0.24282   0.34148   1.000
    O582    O    0.61668   0.30674   0.34273   1.000
    O583    O    0.09961   0.42095   0.34700   1.000
    O584    O    0.17171   0.37396   0.35010   1.000
    O585    O    0.41830   0.23562   0.35441   1.000
    O586    O    0.99919   0.74326   0.34919   1.000
    O587    O    0.99620   0.68225   0.37218   1.000
    O588    O    0.00769   0.80457   0.37127   1.000
    O589    O    0.03159   0.49213   0.35119   1.000
    O590    O    0.01339   0.56769   0.37235   1.000
    O591    O    0.97029   0.99491   0.35138   1.000
    O592    O    0.99150   0.91925   0.37175   1.000
    O593    O    0.06228   0.27200   0.36570   1.000
    O594    O    0.95910   0.27827   0.37377   1.000
    O595    O    0.00766   0.21440   0.38765   1.000
    O596    O    0.22674   0.32636   0.35485   1.000
    O597    O    0.28464   0.27660   0.36090   1.000
    O598    O    0.90296   0.06641   0.35303   1.000
    O599    O    0.00541   0.05789   0.38412   1.000
    O600    O    0.00599   0.42807   0.38675   1.000
    O601    O    0.15000   0.32038   0.36894   1.000
    O602    O    0.30781   0.60320   0.36794   1.000
    O603    O    0.33912   0.55022   0.37553   1.000
    O604    O    0.68855   0.82790   0.36909   1.000
    O605    O    0.65796   0.77473   0.37736   1.000
    O606    O    0.33941   0.22773   0.36809   1.000
    O607    O    0.39138   0.18722   0.37420   1.000
    O608    O    0.26861   0.22465   0.37924   1.000
    O609    O    0.25526   0.63417   0.39975   1.000
    O610    O    0.74533   0.85965   0.39912   1.000
    O611    O    0.01618   0.86340   0.39290   1.000
    O612    O    0.02140   0.91867   0.40902   1.000
    O613    O    0.03760   0.81227   0.41043   1.000
    O614    O    0.99324   0.62373   0.39474   1.000
    O615    O    0.99194   0.56871   0.41155   1.000
    O616    O    0.97607   0.67503   0.41345   1.000
    O617    O    0.91896   0.33894   0.41206   1.000
    O618    O    0.04716   0.09508   0.42743   1.000
    O619    O    0.95024   0.39337   0.42490   1.000
    O620    O    0.78631   0.89547   0.43422   1.000
    O621    O    0.78915   0.82895   0.43621   1.000
    O622    O    0.03140   0.15595   0.43106   1.000
    O623    O    0.21304   0.60167   0.43550   1.000
    O624    O    0.22223   0.66772   0.43921   1.000
    O625    O    0.20075   0.54283   0.43567   1.000
    O626    O    0.78708   0.95526   0.43600   1.000
    O627    O    0.89676   0.36527   0.45337   1.000
    O628    O    0.79551   0.76983   0.44091   1.000
    O629    O    0.22825   0.72652   0.44580   1.000
    O630    O    0.08245   0.12890   0.46201   1.000
    O631    O    0.82670   0.93171   0.46751   1.000
    O632    O    0.17096   0.56868   0.46990   1.000
    O633    O    0.83257   0.79864   0.47099   1.000
    O634    O    0.19012   0.70072   0.47721   1.000
    O635    O    0.83969   0.27387   0.48780   1.000
    O636    O    0.85185   0.33226   0.48874   1.000
    O637    O    0.86182   0.39824   0.49237   1.000
    O638    O    0.12642   0.16509   0.49595   1.000
    O639    O    0.12945   0.09853   0.49779   1.000
    O640    O    0.12752   0.22428   0.49631   1.000
    O641    O    0.86409   0.96032   0.49821   1.000
    O642    O    0.87055   0.90143   0.50221   1.000
    O643    O    0.86818   0.45683   0.49850   1.000
    O644    O    0.87247   0.77569   0.50330   1.000
    O645    O    0.87358   0.83488   0.50370   1.000
    O646    O    0.13591   0.03964   0.50179   1.000
    O647    O    0.13181   0.54314   0.50145   1.000
    O648    O    0.13817   0.60173   0.50762   1.000
    O649    O    0.80988   0.29925   0.52271   1.000
    O650    O    0.14814   0.66770   0.51122   1.000
    O651    O    0.16030   0.72610   0.51216   1.000
    O652    O    0.82904   0.43128   0.52965   1.000
    O653    O    0.16742   0.20133   0.52866   1.000
    O654    O    0.17329   0.06825   0.53234   1.000
    O655    O    0.91755   0.87107   0.53799   1.000
    O656    O    0.10324   0.63470   0.54662   1.000
    O657    O    0.77174   0.27344   0.55416   1.000
    O658    O    0.77776   0.33224   0.56055   1.000
    O659    O    0.20448   0.23014   0.55910   1.000
    O660    O    0.21084   0.17101   0.56380   1.000
    O661    O    0.78696   0.39830   0.56386   1.000
    O662    O    0.79924   0.45714   0.56388   1.000
    O663    O    0.21291   0.04470   0.56383   1.000
    O664    O    0.21369   0.10449   0.56564   1.000
    O665    O    0.96859   0.84401   0.56894   1.000
    O666    O    0.95284   0.90489   0.57256   1.000
    O667    O    0.02392   0.32494   0.58652   1.000
    O668    O    0.00752   0.43125   0.58845   1.000
    O669    O    0.04976   0.60659   0.57510   1.000
    O670    O    0.08103   0.66102   0.58794   1.000
    O671    O    0.96240   0.18769   0.58957   1.000
    O672    O    0.97859   0.08129   0.59096   1.000
    O673    O    0.74473   0.36579   0.60005   1.000
    O674    O    0.99234   0.78557   0.61234   1.000
    O675    O    0.25466   0.14031   0.60089   1.000
    O676    O    0.99401   0.57190   0.61325   1.000
    O677    O    0.99459   0.94207   0.61587   1.000
    O678    O    0.04090   0.72169   0.62623   1.000
    O679    O    0.00622   0.37623   0.60526   1.000
    O680    O    0.00379   0.31771   0.62781   1.000
    O681    O    0.98608   0.43227   0.62765   1.000
    O682    O    0.98381   0.13656   0.60710   1.000
    O683    O    0.99231   0.19539   0.62873   1.000
    O684    O    0.00849   0.08071   0.62826   1.000
    O685    O    0.34203   0.22524   0.62264   1.000
    O686    O    0.66087   0.44975   0.62446   1.000
    O687    O    0.73139   0.77531   0.62075   1.000
    O688    O    0.60862   0.81274   0.62580   1.000
    O689    O    0.85000   0.67959   0.63104   1.000
    O690    O    0.93772   0.72797   0.63428   1.000
    O691    O    0.31144   0.17206   0.63091   1.000
    O692    O    0.28197   0.11232   0.64345   1.000
    O693    O    0.69218   0.39676   0.63206   1.000
    O694    O    0.72307   0.33726   0.64398   1.000
    O695    O    0.66059   0.77223   0.63191   1.000
    O696    O    0.71536   0.72337   0.63910   1.000
    O697    O    0.58170   0.76434   0.64560   1.000
    O698    O    0.36671   0.20290   0.65951   1.000
    O699    O    0.64189   0.42856   0.66277   1.000
    O700    O    0.77326   0.67360   0.64514   1.000
    O701    O    0.82829   0.62600   0.64990   1.000
    O702    O    0.09704   0.93355   0.64697   1.000
    O703    O    0.16920   0.88609   0.65326   1.000
    O704    O    0.96841   0.50783   0.64882   1.000
    O705    O    0.90039   0.57902   0.65300   1.000
    O706    O    0.00568   0.57310   0.67826   1.000
    O707    O    0.02971   0.00505   0.64862   1.000
    O708    O    0.00321   0.93960   0.68295   1.000
    O709    O    0.69196   0.66657   0.66031   1.000
    O710    O    0.05526   0.78244   0.66199   1.000
    O711    O    0.95106   0.79153   0.66869   1.000
    O712    O    0.99794   0.72777   0.68496   1.000
    O713    O    0.04146   0.08279   0.67018   1.000
    O714    O    0.96353   0.43069   0.67175   1.000
    O715    O    0.00080   0.25670   0.65081   1.000
    O716    O    0.02626   0.19759   0.67225   1.000
    O717    O    0.98064   0.31610   0.67367   1.000
    O718    O    0.74806   0.28455   0.65797   1.000
    O719    O    0.25868   0.05932   0.65818   1.000
    O720    O    0.38332   0.69322   0.65727   1.000
    O721    O    0.49977   0.75714   0.65852   1.000
    O722    O    0.55834   0.70774   0.66689   1.000
    O723    O    0.26008   0.73057   0.65948   1.000
    O724    O    0.41515   0.74705   0.65941   1.000
    O725    O    0.33330   0.73609   0.65958   1.000
    O726    O    0.44374   0.80940   0.66093   1.000
    O727    O    0.28064   0.78745   0.66062   1.000
    O728    O    0.22427   0.83896   0.66092   1.000
    O729    O    0.14543   0.83061   0.66818   1.000
    O730    O    0.30928   0.84994   0.66143   1.000
    O731    O    0.30814   0.08316   0.68432   1.000
    O732    O    0.39053   0.86095   0.66191   1.000
    O733    O    0.34012   0.90393   0.66222   1.000
    O734    O    0.46298   0.86707   0.66296   1.000
    O735    O    0.70388   0.30964   0.68674   1.000
    O736    O    0.61383   0.65883   0.67442   1.000
    O737    O    0.66644   0.61790   0.67976   1.000
    O738    O    0.54395   0.65551   0.68616   1.000
    O739    O    0.41563   0.22684   0.68676   1.000
    O740    O    0.39295   0.17358   0.70006   1.000
    O741    O    0.59752   0.45333   0.69185   1.000
    O742    O    0.62315   0.40110   0.70536   1.000
    O743    O    0.91370   0.85154   0.70646   1.000
    O744    O    0.05074   0.14084   0.69255   1.000
    O745    O    0.07087   0.08733   0.70759   1.000
    O746    O    0.05875   0.19386   0.71108   1.000
    O747    O    0.96052   0.37304   0.69522   1.000
    O748    O    0.94317   0.42664   0.71118   1.000
    O749    O    0.95820   0.32038   0.71479   1.000
    O750    O    0.36385   0.11358   0.71232   1.000
    O751    O    0.33474   0.06050   0.72086   1.000
    O752    O    0.04752   0.61173   0.72116   1.000
    O753    O    0.65425   0.34169   0.71741   1.000
    O754    O    0.68421   0.28881   0.72547   1.000
    O755    O    0.94785   0.90398   0.72081   1.000
    O756    O    0.42205   0.14315   0.74190   1.000
    O757    O    0.02418   0.67104   0.72772   1.000
    O758    O    0.60315   0.37432   0.74996   1.000
    O759    O    0.89702   0.87404   0.75005   1.000
    O760    O    0.07798   0.64307   0.75808   1.000
    O761    O    0.81568   0.78857   0.77460   1.000
    O762    O    0.16534   0.56052   0.77909   1.000
    O763    O    0.47400   0.17114   0.77226   1.000
    O764    O    0.45249   0.11180   0.77883   1.000
    O765    O    0.54172   0.82062   0.78523   1.000
    O766    O    0.44138   0.69392   0.78893   1.000
    O767    O    0.55664   0.92691   0.78887   1.000
    O768    O    0.55254   0.40434   0.77920   1.000
    O769    O    0.58643   0.35183   0.79343   1.000
    O770    O    0.42934   0.58736   0.79240   1.000
    O771    O    0.84576   0.84146   0.78258   1.000
    O772    O    0.87699   0.90087   0.79459   1.000
    O773    O    0.50024   0.22784   0.81503   1.000
    O774    O    0.13621   0.61354   0.78764   1.000
    O775    O    0.10708   0.67346   0.79992   1.000
    O776    O    0.49720   0.43984   0.81704   1.000
    O777    O    0.79602   0.80946   0.81329   1.000
    O778    O    0.49427   0.07314   0.82175   1.000
    O779    O    0.19195   0.58316   0.81564   1.000
    O780    O    0.90270   0.95312   0.80803   1.000
    O781    O    0.53936   0.87324   0.80482   1.000
    O782    O    0.51931   0.81621   0.82636   1.000
    O783    O    0.95598   0.15555   0.81385   1.000
    O784    O    0.53629   0.93083   0.82829   1.000
    O785    O    0.44942   0.64088   0.80745   1.000
    O786    O    0.47384   0.69763   0.82776   1.000
    O787    O    0.45875   0.58280   0.82981   1.000
    O788    O    0.08436   0.72666   0.81323   1.000
    O789    O    0.54899   0.29167   0.83118   1.000
    O790    O    0.83338   0.11797   0.82028   1.000
    O791    O    0.85825   0.92839   0.83714   1.000
    O792    O    0.13331   0.70274   0.84047   1.000
    O793    O    0.88610   0.15889   0.82558   1.000
    O794    O    0.94171   0.20777   0.83309   1.000
    O795    O    0.35489   0.33062   0.83175   1.000
    O796    O    0.44491   0.28248   0.83797   1.000
    O797    O    0.80800   0.16664   0.83970   1.000
    O798    O    0.03744   0.36705   0.83687   1.000
    O799    O    0.16038   0.40388   0.83764   1.000
    O800    O    0.75175   0.78441   0.84212   1.000
    O801    O    0.77684   0.83713   0.85604   1.000
    O802    O    0.10987   0.36092   0.83792   1.000
    O803    O    0.05655   0.30938   0.83895   1.000
    O804    O    0.19109   0.34989   0.83846   1.000
    O805    O    0.24144   0.55936   0.84176   1.000
    O806    O    0.21811   0.61229   0.85651   1.000
    O807    O    0.27605   0.33890   0.83902   1.000
    O808    O    0.21958   0.28738   0.83933   1.000
    O809    O    0.33117   0.38603   0.84671   1.000
    O810    O    0.16681   0.23604   0.84041   1.000
    O811    O    0.24002   0.23050   0.84053   1.000
    O812    O    0.08499   0.24702   0.84056   1.000
    O813    O    0.00040   0.25714   0.84145   1.000
    O814    O    0.11669   0.19318   0.84275   1.000
    O815    O    0.59952   0.07908   0.84703   1.000
    O816    O    0.67166   0.12608   0.85012   1.000
    O817    O    0.91849   0.26436   0.85435   1.000
    O818    O    0.49923   0.75674   0.84921   1.000
    O819    O    0.49620   0.81768   0.87223   1.000
    O820    O    0.50778   0.69540   0.87128   1.000
    O821    O    0.53145   0.00788   0.85122   1.000
    O822    O    0.51323   0.93226   0.87240   1.000
    O823    O    0.47053   0.50509   0.85136   1.000
    O824    O    0.49170   0.58070   0.87174   1.000
    O825    O    0.56232   0.22799   0.86571   1.000
    O826    O    0.45913   0.22168   0.87376   1.000
    O827    O    0.50771   0.28555   0.88766   1.000
    O828    O    0.72674   0.17368   0.85486   1.000
    O829    O    0.78474   0.22344   0.86089   1.000
    O830    O    0.40330   0.43354   0.85301   1.000
    O831    O    0.50557   0.44212   0.88413   1.000
    O832    O    0.50591   0.07191   0.88678   1.000
    O833    O    0.65000   0.17965   0.86895   1.000
    O834    O    0.80784   0.89664   0.86788   1.000
    O835    O    0.83927   0.94963   0.87541   1.000
    O836    O    0.18860   0.67195   0.86906   1.000
    O837    O    0.15798   0.72504   0.87734   1.000
    O838    O    0.83962   0.27228   0.86802   1.000
    O839    O    0.89171   0.31276   0.87411   1.000
    O840    O    0.76883   0.27537   0.87920   1.000
    O841    O    0.75520   0.86571   0.89993   1.000
    O842    O    0.24541   0.64024   0.89907   1.000
    O843    O    0.51631   0.63655   0.89291   1.000
    O844    O    0.52157   0.58125   0.90904   1.000
    O845    O    0.53768   0.68769   0.91044   1.000
    O846    O    0.49319   0.87614   0.89479   1.000
    O847    O    0.49184   0.93112   0.91162   1.000
    O848    O    0.47610   0.82476   0.91349   1.000
    O849    O    0.41899   0.16097   0.91206   1.000
    O850    O    0.54720   0.40489   0.92746   1.000
    O851    O    0.45022   0.10655   0.92492   1.000
    O852    O    0.28643   0.60443   0.93431   1.000
    O853    O    0.28921   0.67096   0.93616   1.000
    O854    O    0.53144   0.34398   0.93108   1.000
    O855    O    0.70083   0.95709   0.93592   1.000
    O856    O    0.71302   0.89825   0.93603   1.000
    O857    O    0.72210   0.83220   0.93943   1.000
    O858    O    0.28727   0.54465   0.93611   1.000
    O859    O    0.39681   0.13464   0.95340   1.000
    O860    O    0.29550   0.73009   0.94086   1.000
    O861    O    0.72802   0.77341   0.94592   1.000
    O862    O    0.58244   0.37106   0.96205   1.000
    O863    O    0.32685   0.56821   0.96761   1.000
    O864    O    0.67100   0.93127   0.97015   1.000
    O865    O    0.33258   0.70130   0.97130   1.000
    O866    O    0.33994   0.22605   0.98770   1.000
    O867    O    0.35199   0.16766   0.98873   1.000
loop_
    _geom_bond_atom_site_label_1
    _geom_bond_atom_site_label_2
    _geom_bond_distance
    _geom_bond_site_symmetry_2
    _ccdc_geom_bond_type
    C326   O404      0.70134      .   S
    C321   O404      0.70134      .   S
    C326   O405      0.54516      .   S
    C127   O405      0.54516      .   S
    C326   O406      0.69655  1_554   S
    C325   O406      0.69655      .   S
    C166   O407      0.69476      .   S
    C167   O407      0.69476      .   S
    C166   O408      0.70104  1_554   S
    C165   O408      0.70104      .   S
    C166   O409      0.54454  1_554   S
    C28    O409      0.54454      .   S
    C241   O410      0.69571      .   S
    C242   O410      0.69571      .   S
    C241   O411      0.70135  1_554   S
    C240   O411      0.70135      .   S
    C241   O412      0.54515  1_554   S
    C74    O412      0.54515      .   S
    C105   O413      0.54421  1_554   S
    C291   O413      0.54421      .   S
    C124   O414      0.54489      .   S
    C322   O414      0.54489  1_556   S
    C239   O415      0.69426      .   S
    C238   O415      0.69426      .   S
    C239   O416      0.70082  1_554   S
    C240   O416      0.70082      .   S
    C239   O417      0.54421      .   S
    C73    O417      0.54421  1_556   S
    C106   O418      0.54515      .   S
    C293   O418      0.54515  1_556   S
    C292   O419      0.74693      .   S
    C295   O419      0.74693      .   S
    C292   O420      0.70060      .   S
    C291   O420      0.70060  1_556   S
    C292   O421      0.70117      .   S
    C293   O421      0.70117  1_556   S
    C321   O422      0.74839      .   S
    C320   O422      0.74839      .   S
    C321   O423      0.70153      .   S
    C322   O423      0.70153  1_556   S
    C169   O424      0.54543      .   S
    C30    O424      0.54543      .   S
    C169   O425      0.70415      .   S
    C168   O425      0.70415      .   S
    C169   O426      0.69644      .   S
    C170   O426      0.69644  1_556   S
    C242   O427      0.54519      .   S
    C75    O427      0.54519      .   S
    C242   O428      0.70453      .   S
    C237   O428      0.70453      .   S
    C167   O429      0.70367      .   S
    C168   O429      0.70367      .   S
    C167   O430      0.54513      .   S
    C29    O430      0.54513      .   S
    C238   O431      0.54470      .   S
    C72    O431      0.54470      .   S
    C238   O432      0.70483      .   S
    C237   O432      0.70483      .   S
    C295   O433      0.63026      .   S
    C391   O433      0.63026      .   S
    C295   O434      0.64524      .   S
    C390   O434      0.64524      .   S
    C109   O435      0.54428      .   S
    C297   O435      0.54428      .   S
    C108   O436      0.54384      .   S
    C296   O436      0.54384      .   S
    C320   O437      0.64563      .   S
    C396   O437      0.64563      .   S
    C320   O438      0.63032      .   S
    C397   O438      0.63032      .   S
    C113   O439      0.54448      .   S
    C302   O439      0.54448      .   S
    C112   O440      0.54403      .   S
    C301   O440      0.54403      .   S
    C168   O441      0.73888      .   S
    C171   O441      0.73888      .   S
    C391   O442      1.05335      .   S
    C10    O442      1.05335      .   S
    C237   O443      0.73892      .   S
    C234   O443      0.73892      .   S
    C396   O444      0.98424      .   S
    C9     O444      0.98424      .   S
    C390   O445      0.98356      .   S
    C11    O445      0.98356      .   S
    C397   O446      1.06631      .   S
    C10    O446      1.06631      .   S
    C297   O447      0.69316      .   S
    C296   O447      0.69316      .   S
    C297   O448      0.70087      .   S
    C298   O448      0.70087      .   S
    C296   O449      0.67487      .   S
    C354   O449      0.67487      .   S
    C302   O450      0.69313      .   S
    C301   O450      0.69313      .   S
    C302   O451      0.70100      .   S
    C303   O451      0.70100      .   S
    C301   O452      0.67512      .   S
    C355   O452      0.67512      .   S
    C70    O453      0.54507      .   S
    C235   O453      0.54507      .   S
    C32    O454      0.54489      .   S
    C172   O454      0.54489      .   S
    C119   O455      0.54422      .   S
    C312   O455      0.54422      .   S
    C118   O456      0.54487      .   S
    C311   O456      0.54487      .   S
    C393   O457      0.63179      .   S
    C306   O457      0.63179      .   S
    C393   O458      1.05628      .   S
    C10    O458      1.05628      .   S
    C234   O459      0.70437      .   S
    C235   O459      0.70437      .   S
    C234   O460      0.70449      .   S
    C233   O460      0.70449      .   S
    C171   O461      0.70389      .   S
    C172   O461      0.70389      .   S
    C171   O462      0.70421      .   S
    C176   O462      0.70421      .   S
    C312   O463      0.69476      .   S
    C311   O463      0.69476      .   S
    C312   O464      0.70122      .   S
    C307   O464      0.70122      .   S
    C311   O465      0.70480      .   S
    C310   O465      0.70480      .   S
    C235   O466      0.69649      .   S
    C236   O466      0.69649      .   S
    C172   O467      0.69421      .   S
    C173   O467      0.69421      .   S
    C306   O468      0.74599      .   S
    C307   O468      0.74599      .   S
    C306   O469      0.64607      .   S
    C392   O469      0.64607      .   S
    C394   O470      0.98994      .   S
    C11    O470      0.98994      .   S
    C394   O471      0.64793      .   S
    C319   O471      0.64793      .   S
    C9     O472      1.04340      .   S
    C354   O472      1.04340  1_545   S
    C9     O473      0.98549      .   S
    C392   O473      0.98549      .   S
    C9     O474      0.97775      .   S
    C400   O474      0.97775      .   S
    C11    O475      1.04708      .   S
    C355   O475      1.04708      .   S
    C11    O476      0.98057      .   S
    C386   O476      0.98057      .   S
    C307   O477      0.70120      .   S
    C308   O477      0.70120      .   S
    C10    O478      1.05172      .   S
    C395   O478      1.05172      .   S
    C10    O479      1.05607      .   S
    C387   O479      1.05607      .   S
    C10    O480      1.05343      .   S
    C401   O480      1.05343      .   S
    C355   O481      0.67440      .   S
    C305   O481      0.67440      .   S
    C354   O482      0.67453      .   S
    C300   O482      0.67453      .   S
    C303   O483      0.73770      .   S
    C298   O483      0.73770      .   S
    C303   O484      0.70110      .   S
    C304   O484      0.70110      .   S
    C298   O485      0.70138      .   S
    C299   O485      0.70138      .   S
    C35    O486      0.54533      .   S
    C176   O486      0.54533      .   S
    C69    O487      0.54465      .   S
    C233   O487      0.54465      .   S
    C123   O488      0.54519      .   S
    C318   O488      0.54519      .   S
    C310   O489      0.73983  1_455   S
    C313   O489      0.73983      .   S
    C310   O490      0.70495      .   S
    C309   O490      0.70495      .   S
    C122   O491      0.54461      .   S
    C317   O491      0.54461      .   S
    C318   O492      0.70486      .   S
    C313   O492      0.70486      .   S
    C318   O493      0.69553      .   S
    C317   O493      0.69553      .   S
    C313   O494      0.70462      .   S
    C314   O494      0.70462      .   S
    C317   O495      0.70164      .   S
    C316   O495      0.70164      .   S
    C319   O496      0.74767      .   S
    C316   O496      0.74767      .   S
    C319   O497      0.62874      .   S
    C395   O497      0.62874      .   S
    C316   O498      0.70075      .   S
    C315   O498      0.70075      .   S
    C233   O499      0.69389      .   S
    C232   O499      0.69389      .   S
    C315   O500      0.69553      .   S
    C314   O500      0.69553      .   S
    C315   O501      0.54411      .   S
    C121   O501      0.54411      .   S
    C314   O502      0.54508      .   S
    C120   O502      0.54508      .   S
    C176   O503      0.69636      .   S
    C175   O503      0.69636      .   S
    C308   O504      0.69557      .   S
    C309   O504      0.69557      .   S
    C308   O505      0.54463      .   S
    C116   O505      0.54463      .   S
    C309   O506      0.54476      .   S
    C117   O506      0.54476      .   S
    C236   O507      0.54482      .   S
    C71    O507      0.54482      .   S
    C236   O508      0.70073      .   S
    C231   O508      0.70073      .   S
    C173   O509      0.54432      .   S
    C33    O509      0.54432      .   S
    C173   O510      0.70112      .   S
    C174   O510      0.70112      .   S
    C387   O511      0.63145      .   S
    C281   O511      0.63145      .   S
    C305   O512      0.69441      .   S
    C304   O512      0.69441      .   S
    C305   O513      0.54415      .   S
    C115   O513      0.54415      .   S
    C304   O514      0.54415      .   S
    C114   O514      0.54415      .   S
    C300   O515      0.69436      .   S
    C299   O515      0.69436      .   S
    C300   O516      0.54483      .   S
    C111   O516      0.54483      .   S
    C299   O517      0.54467      .   S
    C110   O517      0.54467      .   S
    C232   O518      0.70117      .   S
    C231   O518      0.70117      .   S
    C232   O519      0.54424      .   S
    C68    O519      0.54424      .   S
    C400   O520      0.64463      .   S
    C334   O520      0.64463      .   S
    C175   O521      0.70125      .   S
    C174   O521      0.70125      .   S
    C175   O522      0.54467      .   S
    C34    O522      0.54467      .   S
    C386   O523      0.64498      .   S
    C281   O523      0.64498      .   S
    C231   O524      0.74609      .   S
    C230   O524      0.74609      .   S
    C401   O525      0.63112      .   S
    C334   O525      0.63112      .   S
    C174   O526      0.74681      .   S
    C177   O526      0.74681      .   S
    C281   O527      0.74758      .   S
    C278   O527      0.74758      .   S
    C334   O528      0.74708      .   S
    C335   O528      0.74708      .   S
    C98    O529      0.54475      .   S
    C279   O529      0.54475      .   S
    C132   O530      0.54402      .   S
    C336   O530      0.54402      .   S
    C230   O531      0.63151      .   S
    C377   O531      0.63151      .   S
    C230   O532      0.64523      .   S
    C376   O532      0.64523      .   S
    C46    O533      0.54468      .   S
    C195   O533      0.54468      .   S
    C50    O534      0.54488      .   S
    C200   O534      0.54488      .   S
    C47    O535      0.54490      .   S
    C196   O535      0.54490      .   S
    C177   O536      0.64514      .   S
    C362   O536      0.64514      .   S
    C177   O537      0.63215      .   S
    C363   O537      0.63215      .   S
    C51    O538      0.54491      .   S
    C201   O538      0.54491      .   S
    C278   O539      0.70122      .   S
    C279   O539      0.70122      .   S
    C278   O540      0.70114      .   S
    C277   O540      0.70114      .   S
    C377   O541      1.05307  1_655   S
    C4     O541      1.05307      .   S
    C362   O542      0.98042  1_455   S
    C5     O542      0.98042      .   S
    C335   O543      0.70100      .   S
    C336   O543      0.70100      .   S
    C335   O544      0.70074      .   S
    C340   O544      0.70074      .   S
    C279   O545      0.69621      .   S
    C280   O545      0.69621      .   S
    C376   O546      0.97791      .   S
    C3     O546      0.97791  1_455   S
    C336   O547      0.69464      .   S
    C337   O547      0.69464      .   S
    C97    O548      0.54434      .   S
    C277   O548      0.54434      .   S
    C195   O549      0.69440      .   S
    C196   O549      0.69440      .   S
    C195   O550      0.70140      .   S
    C194   O550      0.70140      .   S
    C53    O551      0.54476      .   S
    C205   O551      0.54476      .   S
    C196   O552      0.67449      .   S
    C350   O552      0.67449      .   S
    C200   O553      0.69444      .   S
    C201   O553      0.69444      .   S
    C200   O554      0.70099      .   S
    C199   O554      0.70099      .   S
    C201   O555      0.67444      .   S
    C351   O555      0.67444      .   S
    C135   O556      0.54481      .   S
    C340   O556      0.54481      .   S
    C363   O557      1.05616      .   S
    C4     O557      1.05616      .   S
    C52    O558      0.54460      .   S
    C204   O558      0.54460      .   S
    C277   O559      0.69405      .   S
    C276   O559      0.69405      .   S
    C340   O560      0.69647      .   S
    C339   O560      0.69647      .   S
    C205   O561      0.69562      .   S
    C204   O561      0.69562      .   S
    C205   O562      0.70499      .   S
    C206   O562      0.70499      .   S
    C371   O563      0.62878      .   S
    C215   O563      0.62878      .   S
    C371   O564      1.05239      .   S
    C4     O564      1.05239  1_455   S
    C204   O565      0.70120      .   S
    C203   O565      0.70120      .   S
    C56    O566      0.54509      .   S
    C210   O566      0.54509      .   S
    C57    O567      0.54412      .   S
    C211   O567      0.54412      .   S
    C280   O568      0.54533      .   S
    C99    O568      0.54533      .   S
    C280   O569      0.70417      .   S
    C275   O569      0.70417      .   S
    C210   O570      0.69559      .   S
    C211   O570      0.69559      .   S
    C210   O571      0.70464      .   S
    C209   O571      0.70464      .   S
    C211   O572      0.70078      .   S
    C212   O572      0.70078      .   S
    C337   O573      0.54465      .   S
    C133   O573      0.54465      .   S
    C337   O574      0.70452      .   S
    C338   O574      0.70452      .   S
    C212   O575      0.74779      .   S
    C215   O575      0.74779      .   S
    C212   O576      0.70165      .   S
    C213   O576      0.70165      .   S
    C215   O577      0.64797      .   S
    C370   O577      0.64797      .   S
    C213   O578      0.69554      .   S
    C214   O578      0.69554      .   S
    C213   O579      0.54461      .   S
    C58    O579      0.54461      .   S
    C209   O580      0.70487      .   S
    C214   O580      0.70487      .   S
    C209   O581      0.73980      .   S
    C206   O581      0.73980      .   S
    C214   O582      0.54519      .   S
    C59    O582      0.54519      .   S
    C368   O583      0.98580      .   S
    C3     O583      0.98580      .   S
    C368   O584      0.64606      .   S
    C202   O584      0.64606      .   S
    C206   O585      0.70479      .   S
    C207   O585      0.70479      .   S
    C194   O586      0.73778  1_455   S
    C199   O586      0.73778      .   S
    C194   O587      0.70087  1_455   S
    C193   O587      0.70087      .   S
    C199   O588      0.70118  1_655   S
    C198   O588      0.70118      .   S
    C350   O589      1.04367      .   S
    C3     O589      1.04367      .   S
    C350   O590      0.67483      .   S
    C192   O590      0.67483  1_655   S
    C351   O591      1.04769      .   S
    C5     O591      1.04769  1_545   S
    C351   O592      0.67518      .   S
    C197   O592      0.67518  1_455   S
    C4     O593      1.05598      .   S
    C369   O593      1.05598      .   S
    C4     O594      1.06701  1_455   S
    C373   O594      1.06701      .   S
    C4     O595      1.05285      .   S
    C367   O595      1.05285      .   S
    C203   O596      0.74612      .   S
    C202   O596      0.74612      .   S
    C203   O597      0.70123      .   S
    C208   O597      0.70123      .   S
    C5     O598      0.99095      .   S
    C370   O598      0.99095      .   S
    C5     O599      0.98392  1_655   S
    C366   O599      0.98392      .   S
    C3     O600      0.98406      .   S
    C372   O600      0.98406  1_655   S
    C202   O601      0.63163      .   S
    C369   O601      0.63163      .   S
    C276   O602      0.70387      .   S
    C275   O602      0.70387      .   S
    C276   O603      0.54495      .   S
    C96    O603      0.54495      .   S
    C339   O604      0.70442      .   S
    C338   O604      0.70442      .   S
    C339   O605      0.54515      .   S
    C134   O605      0.54515      .   S
    C207   O606      0.69477      .   S
    C208   O606      0.69477      .   S
    C207   O607      0.54485      .   S
    C54    O607      0.54485      .   S
    C208   O608      0.54416      .   S
    C55    O608      0.54416      .   S
    C275   O609      0.73434      .   S
    C272   O609      0.73434      .   S
    C338   O610      0.73888      .   S
    C341   O610      0.73888      .   S
    C197   O611      0.69316      .   S
    C198   O611      0.69316      .   S
    C197   O612      0.54353      .   S
    C48    O612      0.54353      .   S
    C198   O613      0.54457      .   S
    C49    O613      0.54457      .   S
    C192   O614      0.69320      .   S
    C193   O614      0.69320      .   S
    C192   O615      0.54390      .   S
    C44    O615      0.54390      .   S
    C193   O616      0.54433      .   S
    C45    O616      0.54433      .   S
    C373   O617      0.63032      .   S
    C216   O617      0.63032      .   S
    C366   O618      0.64522      .   S
    C191   O618      0.64522      .   S
    C372   O619      0.64569      .   S
    C216   O619      0.64569      .   S
    C341   O620      0.70340      .   S
    C342   O620      0.70340      .   S
    C341   O621      0.70455      .   S
    C346   O621      0.70455      .   S
    C367   O622      0.63026      .   S
    C191   O622      0.63026      .   S
    C272   O623      0.70145      .   S
    C271   O623      0.70145      .   S
    C272   O624      0.70687      .   S
    C273   O624      0.70687      .   S
    C93    O625      0.53966      .   S
    C271   O625      0.53966      .   S
    C136   O626      0.54341      .   S
    C342   O626      0.54341      .   S
    C216   O627      0.74830      .   S
    C217   O627      0.74830      .   S
    C139   O628      0.54518      .   S
    C346   O628      0.54518      .   S
    C94    O629      0.54547      .   S
    C273   O629      0.54547      .   S
    C191   O630      0.74655      .   S
    C188   O630      0.74655      .   S
    C342   O631      0.69733      .   S
    C343   O631      0.69733      .   S
    C271   O632      0.70428      .   S
    C270   O632      0.70428      .   S
    C346   O633      0.68865      .   S
    C345   O633      0.68865      .   S
    C273   O634      0.69576      .   S
    C274   O634      0.69576      .   S
    C63    O635      0.54524      .   S
    C222   O635      0.54524      .   S
    C217   O636      0.70139      .   S
    C222   O636      0.70139      .   S
    C217   O637      0.70117      .   S
    C218   O637      0.70117      .   S
    C188   O638      0.70157      .   S
    C189   O638      0.70157      .   S
    C188   O639      0.70088      .   S
    C187   O639      0.70088      .   S
    C42    O640      0.54518      .   S
    C189   O640      0.54518      .   S
    C343   O641      0.54438      .   S
    C137   O641      0.54438      .   S
    C343   O642      0.70088      .   S
    C344   O642      0.70088      .   S
    C60    O643      0.54443      .   S
    C218   O643      0.54443      .   S
    C345   O644      0.54875      .   S
    C138   O644      0.54875      .   S
    C345   O645      0.70485      .   S
    C344   O645      0.70485      .   S
    C41    O646      0.54433      .   S
    C187   O646      0.54433      .   S
    C270   O647      0.54408      .   S
    C92    O647      0.54408      .   S
    C270   O648      0.70117      .   S
    C269   O648      0.70117      .   S
    C222   O649      0.69577      .   S
    C221   O649      0.69577      .   S
    C274   O650      0.70171      .   S
    C269   O650      0.70171      .   S
    C274   O651      0.54570      .   S
    C95    O651      0.54570      .   S
    C218   O652      0.69477      .   S
    C219   O652      0.69477      .   S
    C189   O653      0.69573      .   S
    C190   O653      0.69573      .   S
    C187   O654      0.69439      .   S
    C186   O654      0.69439      .   S
    C344   O655      0.74655      .   S
    C347   O655      0.74655      .   S
    C269   O656      0.74829      .   S
    C268   O656      0.74829      .   S
    C221   O657      0.54578      .   S
    C62    O657      0.54578      .   S
    C221   O658      0.70484      .   S
    C220   O658      0.70484      .   S
    C190   O659      0.54519      .   S
    C43    O659      0.54519      .   S
    C190   O660      0.70455      .   S
    C185   O660      0.70455      .   S
    C219   O661      0.70384      .   S
    C220   O661      0.70384      .   S
    C219   O662      0.54513      .   S
    C61    O662      0.54513      .   S
    C186   O663      0.54466      .   S
    C40    O663      0.54466      .   S
    C186   O664      0.70486      .   S
    C185   O664      0.70486      .   S
    C347   O665      0.63027      .   S
    C403   O665      0.63027      .   S
    C347   O666      0.64522      .   S
    C402   O666      0.64522      .   S
    C77    O667      0.54506      .   S
    C245   O667      0.54506      .   S
    C76    O668      0.54543      .   S
    C244   O668      0.54543      .   S
    C268   O669      0.64569      .   S
    C384   O669      0.64569      .   S
    C268   O670      0.63032      .   S
    C385   O670      0.63032      .   S
    C81    O671      0.54447      .   S
    C250   O671      0.54447      .   S
    C80    O672      0.54402      .   S
    C249   O672      0.54402      .   S
    C220   O673      0.73858      .   S
    C223   O673      0.73858      .   S
    C403   O674      1.05284      .   S
    C7     O674      1.05284      .   S
    C185   O675      0.73888      .   S
    C182   O675      0.73888      .   S
    C384   O676      0.98417  1_455   S
    C6     O676      0.98417      .   S
    C402   O677      0.98392      .   S
    C8     O677      0.98392  1_455   S
    C385   O678      1.06700      .   S
    C7     O678      1.06700  1_655   S
    C245   O679      0.69420      .   S
    C244   O679      0.69420      .   S
    C245   O680      0.70086      .   S
    C246   O680      0.70086  1_655   S
    C244   O681      0.67236  1_455   S
    C352   O681      0.67236      .   S
    C250   O682      0.69316      .   S
    C249   O682      0.69316      .   S
    C250   O683      0.70119      .   S
    C251   O683      0.70119  1_455   S
    C249   O684      0.67519  1_655   S
    C353   O684      0.67519      .   S
    C38    O685      0.54509      .   S
    C183   O685      0.54509      .   S
    C64    O686      0.54494      .   S
    C224   O686      0.54494      .   S
    C87    O687      0.54421      .   S
    C260   O687      0.54421      .   S
    C86    O688      0.54490      .   S
    C259   O688      0.54490      .   S
    C381   O689      0.63169      .   S
    C254   O689      0.63169      .   S
    C381   O690      1.05608      .   S
    C7     O690      1.05608      .   S
    C182   O691      0.70438      .   S
    C183   O691      0.70438      .   S
    C182   O692      0.70453      .   S
    C181   O692      0.70453      .   S
    C223   O693      0.70388      .   S
    C224   O693      0.70388      .   S
    C223   O694      0.70425      .   S
    C228   O694      0.70425      .   S
    C260   O695      0.69478      .   S
    C259   O695      0.69478      .   S
    C260   O696      0.70125      .   S
    C255   O696      0.70125      .   S
    C259   O697      0.70479      .   S
    C258   O697      0.70479      .   S
    C183   O698      0.69648      .   S
    C184   O698      0.69648      .   S
    C224   O699      0.69405      .   S
    C225   O699      0.69405      .   S
    C254   O700      0.74612      .   S
    C255   O700      0.74612      .   S
    C254   O701      0.64615      .   S
    C380   O701      0.64615      .   S
    C382   O702      0.99097      .   S
    C8     O702      0.99097      .   S
    C382   O703      0.64797      .   S
    C267   O703      0.64797      .   S
    C6     O704      1.04369      .   S
    C352   O704      1.04369      .   S
    C6     O705      0.98578      .   S
    C380   O705      0.98578      .   S
    C6     O706      0.97781  1_655   S
    C388   O706      0.97781      .   S
    C8     O707      1.04766  1_565   S
    C353   O707      1.04766      .   S
    C8     O708      0.98009      .   S
    C398   O708      0.98009  1_655   S
    C255   O709      0.70120      .   S
    C256   O709      0.70120      .   S
    C7     O710      1.05239  1_655   S
    C383   O710      1.05239      .   S
    C7     O711      1.05434      .   S
    C399   O711      1.05434      .   S
    C7     O712      1.05197      .   S
    C389   O712      1.05197  1_455   S
    C353   O713      0.67445      .   S
    C253   O713      0.67445      .   S
    C352   O714      0.67458      .   S
    C248   O714      0.67458      .   S
    C251   O715      0.73778      .   S
    C246   O715      0.73778  1_655   S
    C251   O716      0.70100      .   S
    C252   O716      0.70100      .   S
    C246   O717      0.70140      .   S
    C247   O717      0.70140      .   S
    C67    O718      0.54537      .   S
    C228   O718      0.54537      .   S
    C37    O719      0.54466      .   S
    C181   O719      0.54466      .   S
    C91    O720      0.54519      .   S
    C266   O720      0.54519      .   S
    C258   O721      0.73978      .   S
    C261   O721      0.73978      .   S
    C258   O722      0.70487      .   S
    C257   O722      0.70487      .   S
    C90    O723      0.54460      .   S
    C265   O723      0.54460      .   S
    C266   O724      0.70487      .   S
    C261   O724      0.70487      .   S
    C266   O725      0.69554      .   S
    C265   O725      0.69554      .   S
    C261   O726      0.70465      .   S
    C262   O726      0.70465      .   S
    C265   O727      0.70165      .   S
    C264   O727      0.70165      .   S
    C267   O728      0.74779      .   S
    C264   O728      0.74779      .   S
    C267   O729      0.62877      .   S
    C383   O729      0.62877      .   S
    C264   O730      0.70077      .   S
    C263   O730      0.70077      .   S
    C181   O731      0.69383      .   S
    C180   O731      0.69383      .   S
    C263   O732      0.69558      .   S
    C262   O732      0.69558      .   S
    C263   O733      0.54414      .   S
    C89    O733      0.54414      .   S
    C262   O734      0.54509      .   S
    C88    O734      0.54509      .   S
    C228   O735      0.69533      .   S
    C227   O735      0.69533      .   S
    C256   O736      0.69560      .   S
    C257   O736      0.69560      .   S
    C256   O737      0.54460      .   S
    C84    O737      0.54460      .   S
    C257   O738      0.54487      .   S
    C85    O738      0.54487      .   S
    C184   O739      0.54483      .   S
    C39    O739      0.54483      .   S
    C184   O740      0.70074      .   S
    C179   O740      0.70074      .   S
    C225   O741      0.54433      .   S
    C65    O741      0.54433      .   S
    C225   O742      0.70114      .   S
    C226   O742      0.70114      .   S
    C399   O743      0.63407      .   S
    C333   O743      0.63407      .   S
    C253   O744      0.69444      .   S
    C252   O744      0.69444      .   S
    C253   O745      0.54482      .   S
    C83    O745      0.54482      .   S
    C252   O746      0.54489      .   S
    C82    O746      0.54489      .   S
    C248   O747      0.69439      .   S
    C247   O747      0.69439      .   S
    C248   O748      0.54479      .   S
    C79    O748      0.54479      .   S
    C247   O749      0.54467      .   S
    C78    O749      0.54467      .   S
    C180   O750      0.70117      .   S
    C179   O750      0.70117      .   S
    C180   O751      0.54458      .   S
    C36    O751      0.54458      .   S
    C388   O752      0.64468      .   S
    C282   O752      0.64468      .   S
    C227   O753      0.70142      .   S
    C226   O753      0.70142      .   S
    C227   O754      0.54533      .   S
    C66    O754      0.54533      .   S
    C398   O755      0.64508      .   S
    C333   O755      0.64508      .   S
    C179   O756      0.74709      .   S
    C178   O756      0.74709      .   S
    C389   O757      0.64581      .   S
    C282   O757      0.64581      .   S
    C226   O758      0.74758      .   S
    C229   O758      0.74758      .   S
    C333   O759      0.74758      .   S
    C330   O759      0.74758      .   S
    C282   O760      0.74701      .   S
    C283   O760      0.74701      .   S
    C130   O761      0.54468      .   S
    C331   O761      0.54468      .   S
    C100   O762      0.54458      .   S
    C284   O762      0.54458      .   S
    C178   O763      0.63114      .   S
    C365   O763      0.63114      .   S
    C178   O764      0.64463      .   S
    C364   O764      0.64463      .   S
    C14    O765      0.54466      .   S
    C143   O765      0.54466      .   S
    C18    O766      0.54485      .   S
    C148   O766      0.54485      .   S
    C15    O767      0.54484      .   S
    C144   O767      0.54484      .   S
    C229   O768      0.64498      .   S
    C374   O768      0.64498      .   S
    C229   O769      0.63153      .   S
    C375   O769      0.63153      .   S
    C19    O770      0.54480      .   S
    C149   O770      0.54480      .   S
    C330   O771      0.70124      .   S
    C331   O771      0.70124      .   S
    C330   O772      0.70114      .   S
    C329   O772      0.70114      .   S
    C365   O773      1.05343      .   S
    C1     O773      1.05343      .   S
    C283   O774      0.70117      .   S
    C284   O774      0.70117      .   S
    C283   O775      0.70073      .   S
    C288   O775      0.70073      .   S
    C374   O776      0.98057      .   S
    C2     O776      0.98057      .   S
    C331   O777      0.69625      .   S
    C332   O777      0.69625      .   S
    C364   O778      0.97775      .   S
    C0     O778      0.97775      .   S
    C284   O779      0.69389      .   S
    C285   O779      0.69389      .   S
    C129   O780      0.54433      .   S
    C329   O780      0.54433      .   S
    C143   O781      0.69437      .   S
    C144   O781      0.69437      .   S
    C143   O782      0.70139      .   S
    C142   O782      0.70139      .   S
    C21    O783      0.54477      .   S
    C153   O783      0.54477      .   S
    C144   O784      0.67444      .   S
    C348   O784      0.67444      .   S
    C148   O785      0.69440      .   S
    C149   O785      0.69440      .   S
    C148   O786      0.70101      .   S
    C147   O786      0.70101      .   S
    C149   O787      0.67440      .   S
    C349   O787      0.67440      .   S
    C103   O788      0.54483      .   S
    C288   O788      0.54483      .   S
    C375   O789      1.05606      .   S
    C1     O789      1.05606      .   S
    C20    O790      0.54461      .   S
    C152   O790      0.54461      .   S
    C329   O791      0.69421      .   S
    C328   O791      0.69421      .   S
    C288   O792      0.69649      .   S
    C287   O792      0.69649      .   S
    C153   O793      0.69557      .   S
    C152   O793      0.69557      .   S
    C153   O794      0.70498      .   S
    C154   O794      0.70498      .   S
    C359   O795      0.62875      .   S
    C163   O795      0.62875      .   S
    C359   O796      1.05176      .   S
    C1     O796      1.05176      .   S
    C152   O797      0.70123      .   S
    C151   O797      0.70123      .   S
    C24    O798      0.54503      .   S
    C158   O798      0.54503      .   S
    C25    O799      0.54411      .   S
    C159   O799      0.54411      .   S
    C332   O800      0.54535      .   S
    C131   O800      0.54535      .   S
    C332   O801      0.70423      .   S
    C327   O801      0.70423      .   S
    C158   O802      0.69553      .   S
    C159   O802      0.69553      .   S
    C158   O803      0.70467      .   S
    C157   O803      0.70467      .   S
    C159   O804      0.70076      .   S
    C160   O804      0.70076      .   S
    C285   O805      0.54465      .   S
    C101   O805      0.54465      .   S
    C285   O806      0.70449      .   S
    C286   O806      0.70449      .   S
    C160   O807      0.74766      .   S
    C163   O807      0.74766      .   S
    C160   O808      0.70164      .   S
    C161   O808      0.70164      .   S
    C163   O809      0.64796      .   S
    C358   O809      0.64796      .   S
    C161   O810      0.69553      .   S
    C162   O810      0.69553      .   S
    C161   O811      0.54461      .   S
    C26    O811      0.54461      .   S
    C157   O812      0.70486      .   S
    C162   O812      0.70486      .   S
    C157   O813      0.73982      .   S
    C154   O813      0.73982  1_655   S
    C162   O814      0.54519      .   S
    C27    O814      0.54519      .   S
    C356   O815      0.98549      .   S
    C0     O815      0.98549      .   S
    C356   O816      0.64607      .   S
    C150   O816      0.64607      .   S
    C154   O817      0.70454      .   S
    C155   O817      0.70454      .   S
    C142   O818      0.73770      .   S
    C147   O818      0.73770      .   S
    C142   O819      0.70087      .   S
    C141   O819      0.70087      .   S
    C147   O820      0.70110      .   S
    C146   O820      0.70110      .   S
    C348   O821      1.04339  1_565   S
    C0     O821      1.04339      .   S
    C348   O822      0.67487      .   S
    C140   O822      0.67487      .   S
    C349   O823      1.04708      .   S
    C2     O823      1.04708      .   S
    C349   O824      0.67512      .   S
    C145   O824      0.67512      .   S
    C1     O825      1.05625      .   S
    C357   O825      1.05625      .   S
    C1     O826      1.06623      .   S
    C361   O826      1.06623      .   S
    C1     O827      1.05324      .   S
    C379   O827      1.05324      .   S
    C151   O828      0.74598      .   S
    C150   O828      0.74598      .   S
    C151   O829      0.70122      .   S
    C156   O829      0.70122      .   S
    C2     O830      0.98994      .   S
    C358   O830      0.98994      .   S
    C2     O831      0.98356      .   S
    C378   O831      0.98356      .   S
    C0     O832      0.98424      .   S
    C360   O832      0.98424      .   S
    C150   O833      0.63178      .   S
    C357   O833      0.63178      .   S
    C328   O834      0.70385      .   S
    C327   O834      0.70385      .   S
    C328   O835      0.54491      .   S
    C128   O835      0.54491      .   S
    C287   O836      0.70437      .   S
    C286   O836      0.70437      .   S
    C287   O837      0.54508      .   S
    C102   O837      0.54508      .   S
    C155   O838      0.69481      .   S
    C156   O838      0.69481      .   S
    C155   O839      0.54509      .   S
    C22    O839      0.54509      .   S
    C156   O840      0.54422      .   S
    C23    O840      0.54422      .   S
    C327   O841      0.73866      .   S
    C324   O841      0.73866      .   S
    C286   O842      0.73893      .   S
    C289   O842      0.73893      .   S
    C145   O843      0.69314      .   S
    C146   O843      0.69314      .   S
    C145   O844      0.54403      .   S
    C16    O844      0.54403      .   S
    C146   O845      0.54437      .   S
    C17    O845      0.54437      .   S
    C140   O846      0.69316      .   S
    C141   O846      0.69316      .   S
    C140   O847      0.54395      .   S
    C12    O847      0.54395      .   S
    C141   O848      0.54428      .   S
    C13    O848      0.54428      .   S
    C361   O849      0.63040      .   S
    C164   O849      0.63040      .   S
    C378   O850      0.64524      .   S
    C243   O850      0.64524      .   S
    C360   O851      0.64565      .   S
    C164   O851      0.64565      .   S
    C289   O852      0.70483      .   S
    C290   O852      0.70483      .   S
    C289   O853      0.70453      .   S
    C294   O853      0.70453      .   S
    C379   O854      0.63025      .   S
    C243   O854      0.63025      .   S
    C125   O855      0.54475      .   S
    C323   O855      0.54475      .   S
    C324   O856      0.70354      .   S
    C323   O856      0.70354      .   S
    C324   O857      0.70432      .   S
    C325   O857      0.70432      .   S
    C104   O858      0.54470      .   S
    C290   O858      0.54470      .   S
    C164   O859      0.74828      .   S
    C165   O859      0.74828      .   S
    C107   O860      0.54519      .   S
    C294   O860      0.54519      .   S
    C126   O861      0.54543      .   S
    C325   O861      0.54543      .   S
    C243   O862      0.74654      .   S
    C240   O862      0.74654      .   S
    C290   O863      0.69424      .   S
    C291   O863      0.69424      .   S
    C323   O864      0.69455      .   S
    C322   O864      0.69455      .   S
    C294   O865      0.69569      .   S
    C293   O865      0.69569      .   S
    C31    O866      0.54523      .   S
    C170   O866      0.54523      .   S
    C165   O867      0.70138      .   S
    C170   O867      0.70138      .   S
