# CIF file generated by openbabel 2.4.90, see http://openbabel.sf.net
data_I
_chemical_name_common ''
_cell_length_a 14.712
_cell_length_b 18.13
_cell_length_c 25.12
_cell_angle_alpha 89.962
_cell_angle_beta 90.097
_cell_angle_gamma 90.047
_space_group_name_H-M_alt 'P 1'
_space_group_name_Hall 'P 1'
loop_
    _symmetry_equiv_pos_as_xyz
    x,y,z
loop_
    _atom_site_label
    _atom_site_type_symbol
    _atom_site_fract_x
    _atom_site_fract_y
    _atom_site_fract_z
    _atom_site_occupancy
    Zr0     Zr   0.53525   0.06535   0.85192   1.000
    Zr1     Zr   0.50416   0.25605   0.85161   1.000
    Zr2     Zr   0.46837   0.44736   0.85178   1.000
    Zr3     Zr   0.03534   0.43465   0.35190   1.000
    Zr4     Zr   0.00411   0.24393   0.35161   1.000
    Zr5     Zr   0.96810   0.05266   0.35180   1.000
    Zr6     Zr   0.96466   0.56531   0.64811   1.000
    Zr7     Zr   0.99589   0.75603   0.64839   1.000
    Zr8     Zr   0.03190   0.94730   0.64820   1.000
    Zr9     Zr   0.46475   0.93462   0.14808   1.000
    Zr10    Zr   0.49583   0.74392   0.14840   1.000
    Zr11    Zr   0.53163   0.55261   0.14822   1.000
    Zr12    Zr   0.67952   0.15936   0.85810   1.000
    Zr13    Zr   0.32411   0.35233   0.83917   1.000
    Zr14    Zr   0.42387   0.13464   0.92821   1.000
    Zr15    Zr   0.07882   0.12390   0.27600   1.000
    Zr16    Zr   0.45168   0.14266   0.76608   1.000
    Zr17    Zr   0.05160   0.12704   0.43842   1.000
    Zr18    Zr   0.17954   0.34069   0.35809   1.000
    Zr19    Zr   0.82378   0.14759   0.33922   1.000
    Zr20    Zr   0.92385   0.36527   0.42819   1.000
    Zr21    Zr   0.57905   0.37636   0.77610   1.000
    Zr22    Zr   0.95165   0.35739   0.26600   1.000
    Zr23    Zr   0.55163   0.37291   0.93845   1.000
    Zr24    Zr   0.82045   0.65928   0.64190   1.000
    Zr25    Zr   0.17622   0.85237   0.66078   1.000
    Zr26    Zr   0.07615   0.63469   0.57181   1.000
    Zr27    Zr   0.42094   0.62360   0.22390   1.000
    Zr28    Zr   0.04835   0.64257   0.73391   1.000
    Zr29    Zr   0.44837   0.62706   0.06155   1.000
    Zr30    Zr   0.32048   0.84061   0.14190   1.000
    Zr31    Zr   0.67588   0.64764   0.16083   1.000
    Zr32    Zr   0.57613   0.86533   0.07180   1.000
    Zr33    Zr   0.92117   0.87605   0.72393   1.000
    Zr34    Zr   0.54832   0.85731   0.23392   1.000
    Zr35    Zr   0.94839   0.87292   0.56158   1.000
    Zr36    Zr   0.66380   0.09281   0.84215   1.000
    Zr37    Zr   0.62048   0.19994   0.87981   1.000
    Zr38    Zr   0.33822   0.41972   0.85425   1.000
    Zr39    Zr   0.38566   0.30890   0.82434   1.000
    Zr40    Zr   0.47658   0.07847   0.92164   1.000
    Zr41    Zr   0.41411   0.18731   0.89591   1.000
    Zr42    Zr   0.02548   0.06806   0.28227   1.000
    Zr43    Zr   0.09377   0.17292   0.31071   1.000
    Zr44    Zr   0.45330   0.08094   0.79159   1.000
    Zr45    Zr   0.49633   0.19962   0.77845   1.000
    Zr46    Zr   0.04272   0.06312   0.41645   1.000
    Zr47    Zr   0.01120   0.18487   0.42370   1.000
    Zr48    Zr   0.16388   0.40724   0.34211   1.000
    Zr49    Zr   0.12045   0.30006   0.37980   1.000
    Zr50    Zr   0.83782   0.08016   0.35426   1.000
    Zr51    Zr   0.88536   0.19111   0.32441   1.000
    Zr52    Zr   0.97664   0.42148   0.42161   1.000
    Zr53    Zr   0.91408   0.31261   0.39593   1.000
    Zr54    Zr   0.52602   0.43232   0.78230   1.000
    Zr55    Zr   0.59381   0.32729   0.81076   1.000
    Zr56    Zr   0.95330   0.41907   0.29159   1.000
    Zr57    Zr   0.99630   0.30045   0.27847   1.000
    Zr58    Zr   0.54277   0.43687   0.91648   1.000
    Zr59    Zr   0.51126   0.31505   0.92371   1.000
    Zr60    Zr   0.83612   0.59272   0.65790   1.000
    Zr61    Zr   0.87955   0.69990   0.62018   1.000
    Zr62    Zr   0.16218   0.91980   0.64574   1.000
    Zr63    Zr   0.11463   0.80885   0.67559   1.000
    Zr64    Zr   0.02336   0.57849   0.57839   1.000
    Zr65    Zr   0.08592   0.68735   0.60407   1.000
    Zr66    Zr   0.47397   0.56765   0.21770   1.000
    Zr67    Zr   0.40618   0.67267   0.18925   1.000
    Zr68    Zr   0.04669   0.58089   0.70841   1.000
    Zr69    Zr   0.00000   0.69951   0.72153   1.000
    Zr70    Zr   0.45723   0.56310   0.08352   1.000
    Zr71    Zr   0.48874   0.68491   0.07629   1.000
    Zr72    Zr   0.33620   0.90716   0.15785   1.000
    Zr73    Zr   0.37952   0.80003   0.12019   1.000
    Zr74    Zr   0.66178   0.58024   0.14576   1.000
    Zr75    Zr   0.61434   0.69106   0.17566   1.000
    Zr76    Zr   0.52342   0.92150   0.07836   1.000
    Zr77    Zr   0.58589   0.81266   0.10409   1.000
    Zr78    Zr   0.97453   0.93190   0.71770   1.000
    Zr79    Zr   0.90623   0.82703   0.68900   1.000
    Zr80    Zr   0.54670   0.91903   0.20841   1.000
    Zr81    Zr   0.50367   0.80034   0.22156   1.000
    Zr82    Zr   0.95728   0.93685   0.58355   1.000
    Zr83    Zr   0.98880   0.81510   0.57630   1.000
    O84     O    0.46856   0.65599   0.06892   1.000
    O85     O    0.45280   0.59508   0.07253   1.000
    O86     O    0.54978   0.89341   0.07508   1.000
    O87     O    0.58101   0.83899   0.08794   1.000
    O88     O    0.49229   0.71442   0.11234   1.000
    O89     O    0.49409   0.92806   0.11322   1.000
    O90     O    0.49443   0.55785   0.11587   1.000
    O91     O    0.54086   0.77829   0.12624   1.000
    O92     O    0.35000   0.82032   0.13104   1.000
    O93     O    0.43768   0.77197   0.13429   1.000
    O94     O    0.32834   0.87389   0.14987   1.000
    O95     O    0.59670   0.56642   0.14699   1.000
    O96     O    0.66883   0.61394   0.15329   1.000
    O97     O    0.40048   0.92089   0.15296   1.000
    O98     O    0.50573   0.92682   0.17824   1.000
    O99     O    0.50280   0.56013   0.18296   1.000
    O100    O    0.55509   0.71749   0.16203   1.000
    O101    O    0.45101   0.70830   0.16882   1.000
    O102    O    0.49975   0.77213   0.18498   1.000
    O103    O    0.64511   0.66935   0.16825   1.000
    O104    O    0.41356   0.64814   0.20658   1.000
    O105    O    0.54751   0.88817   0.22116   1.000
    O106    O    0.44746   0.59562   0.22080   1.000
    O107    O    0.52600   0.82883   0.22774   1.000
    O108    O    0.97398   0.32892   0.27224   1.000
    O109    O    0.95248   0.38823   0.27879   1.000
    O110    O    0.05215   0.09598   0.27914   1.000
    O111    O    0.08630   0.14841   0.29335   1.000
    O112    O    0.00021   0.27219   0.31504   1.000
    O113    O    0.99679   0.06036   0.31703   1.000
    O114    O    0.99432   0.42686   0.32175   1.000
    O115    O    0.04894   0.20843   0.33116   1.000
    O116    O    0.85457   0.16935   0.33182   1.000
    O117    O    0.94474   0.21752   0.33801   1.000
    O118    O    0.83080   0.11387   0.34674   1.000
    O119    O    0.09961   0.42095   0.34700   1.000
    O120    O    0.17171   0.37396   0.35010   1.000
    O121    O    0.06228   0.27200   0.36570   1.000
    O122    O    0.95910   0.27827   0.37377   1.000
    O123    O    0.00766   0.21440   0.38765   1.000
    O124    O    0.90296   0.06641   0.35303   1.000
    O125    O    0.00541   0.05789   0.38412   1.000
    O126    O    0.00599   0.42807   0.38675   1.000
    O127    O    0.15000   0.32038   0.36894   1.000
    O128    O    0.91896   0.33894   0.41206   1.000
    O129    O    0.04716   0.09508   0.42743   1.000
    O130    O    0.95024   0.39337   0.42490   1.000
    O131    O    0.03140   0.15595   0.43106   1.000
    O132    O    0.96859   0.84401   0.56894   1.000
    O133    O    0.95284   0.90489   0.57256   1.000
    O134    O    0.04976   0.60659   0.57510   1.000
    O135    O    0.08103   0.66102   0.58794   1.000
    O136    O    0.99234   0.78557   0.61234   1.000
    O137    O    0.99401   0.57190   0.61325   1.000
    O138    O    0.99459   0.94207   0.61587   1.000
    O139    O    0.04090   0.72169   0.62623   1.000
    O140    O    0.85000   0.67959   0.63104   1.000
    O141    O    0.93772   0.72797   0.63428   1.000
    O142    O    0.82829   0.62600   0.64990   1.000
    O143    O    0.09704   0.93355   0.64697   1.000
    O144    O    0.16920   0.88609   0.65326   1.000
    O145    O    0.90039   0.57902   0.65300   1.000
    O146    O    0.00568   0.57310   0.67826   1.000
    O147    O    0.00321   0.93960   0.68295   1.000
    O148    O    0.05526   0.78244   0.66199   1.000
    O149    O    0.95106   0.79153   0.66869   1.000
    O150    O    0.99794   0.72777   0.68496   1.000
    O151    O    0.14543   0.83061   0.66818   1.000
    O152    O    0.91370   0.85154   0.70646   1.000
    O153    O    0.04752   0.61173   0.72116   1.000
    O154    O    0.94785   0.90398   0.72081   1.000
    O155    O    0.02418   0.67104   0.72772   1.000
    O156    O    0.47400   0.17114   0.77226   1.000
    O157    O    0.45249   0.11180   0.77883   1.000
    O158    O    0.55254   0.40434   0.77920   1.000
    O159    O    0.58643   0.35183   0.79343   1.000
    O160    O    0.50024   0.22784   0.81503   1.000
    O161    O    0.49720   0.43984   0.81704   1.000
    O162    O    0.49427   0.07314   0.82175   1.000
    O163    O    0.54899   0.29167   0.83118   1.000
    O164    O    0.35489   0.33062   0.83175   1.000
    O165    O    0.44491   0.28248   0.83797   1.000
    O166    O    0.33117   0.38603   0.84671   1.000
    O167    O    0.59952   0.07908   0.84703   1.000
    O168    O    0.67166   0.12608   0.85012   1.000
    O169    O    0.56232   0.22799   0.86571   1.000
    O170    O    0.45913   0.22168   0.87376   1.000
    O171    O    0.50771   0.28555   0.88766   1.000
    O172    O    0.40330   0.43354   0.85301   1.000
    O173    O    0.50557   0.44212   0.88413   1.000
    O174    O    0.50591   0.07191   0.88678   1.000
    O175    O    0.65000   0.17965   0.86895   1.000
    O176    O    0.41899   0.16097   0.91206   1.000
    O177    O    0.54720   0.40489   0.92746   1.000
    O178    O    0.45022   0.10655   0.92492   1.000
    O179    O    0.53144   0.34398   0.93108   1.000
    N180    N    0.75388   0.36121   0.10124   1.000
    O181    O    0.83795   0.35905   0.17155   1.000
    O182    O    0.66816   0.36613   0.03165   1.000
    N183    N    0.99954   0.74330   0.34997   1.000
    O184    O    0.01557   0.61771   0.35058   1.000
    O185    O    0.98491   0.86910   0.35068   1.000
    N186    N    0.25372   0.63274   0.39939   1.000
    O187    O    0.32529   0.62919   0.32471   1.000
    O188    O    0.17848   0.63372   0.47301   1.000
    N189    N    0.24630   0.13283   0.10056   1.000
    O190    O    0.17464   0.12937   0.17524   1.000
    O191    O    0.32155   0.13373   0.02698   1.000
    N192    N    0.00058   0.25701   0.84319   1.000
    O193    O    0.13831   0.29796   0.84111   1.000
    O194    O    0.86366   0.21535   0.84903   1.000
    N195    N    0.75370   0.86714   0.89943   1.000
    O196    O    0.82536   0.87059   0.82474   1.000
    O197    O    0.67845   0.86623   0.97302   1.000
    N198    N    0.24612   0.63876   0.89876   1.000
    O199    O    0.16205   0.64091   0.82842   1.000
    O200    O    0.33184   0.63383   0.96834   1.000
    N201    N    0.50041   0.24295   0.34323   1.000
    O202    O    0.36358   0.28465   0.34904   1.000
    O203    O    0.63807   0.20198   0.34115   1.000
    N204    N    0.25394   0.13882   0.60120   1.000
    O205    O    0.33800   0.14098   0.67155   1.000
    O206    O    0.16820   0.13386   0.53161   1.000
    N207    N    0.99942   0.74295   0.15680   1.000
    O208    O    0.13634   0.78462   0.15097   1.000
    O209    O    0.86168   0.70201   0.15889   1.000
    N210    N    0.74627   0.36723   0.60054   1.000
    O211    O    0.82151   0.36625   0.52696   1.000
    O212    O    0.67471   0.37077   0.67525   1.000
    N213    N    0.74605   0.86115   0.39874   1.000
    O214    O    0.83180   0.86611   0.46837   1.000
    O215    O    0.66200   0.85898   0.32842   1.000
    N216    N    0.00040   0.25667   0.65002   1.000
    O217    O    0.01506   0.13086   0.64932   1.000
    O218    O    0.98441   0.38225   0.64942   1.000
    N219    N    0.50044   0.24327   0.14999   1.000
    O220    O    0.48449   0.11768   0.14938   1.000
    O221    O    0.51495   0.36907   0.14931   1.000
    N222    N    0.49959   0.75701   0.65676   1.000
    O223    O    0.36193   0.79799   0.65884   1.000
    O224    O    0.63642   0.71531   0.65095   1.000
    N225    N    0.49957   0.75670   0.85000   1.000
    O226    O    0.51551   0.88229   0.85061   1.000
    O227    O    0.48505   0.63089   0.85068   1.000
loop_
    _geom_bond_atom_site_label_1
    _geom_bond_atom_site_label_2
    _geom_bond_distance
    _geom_bond_site_symmetry_2
    _ccdc_geom_bond_type
    Zr29   O84       0.63026      .   S
    Zr71   O84       0.63026      .   S
    Zr29   O85       0.64524      .   S
    Zr70   O85       0.64524      .   S
    Zr32   O86       0.64563      .   S
    Zr76   O86       0.64563      .   S
    Zr32   O87       0.63032      .   S
    Zr77   O87       0.63032      .   S
    Zr71   O88       1.05335      .   S
    Zr10   O88       1.05335      .   S
    Zr76   O89       0.98424      .   S
    Zr9    O89       0.98424      .   S
    Zr70   O90       0.98356      .   S
    Zr11   O90       0.98356      .   S
    Zr77   O91       1.06631      .   S
    Zr10   O91       1.06631      .   S
    Zr73   O92       0.63179      .   S
    Zr30   O92       0.63179      .   S
    Zr73   O93       1.05628      .   S
    Zr10   O93       1.05628      .   S
    Zr30   O94       0.64607      .   S
    Zr72   O94       0.64607      .   S
    Zr74   O95       0.98994      .   S
    Zr11   O95       0.98994      .   S
    Zr74   O96       0.64793      .   S
    Zr31   O96       0.64793      .   S
    Zr9    O97       0.98549      .   S
    Zr72   O97       0.98549      .   S
    Zr9    O98       0.97775      .   S
    Zr80   O98       0.97775      .   S
    Zr11   O99       0.98057      .   S
    Zr66   O99       0.98057      .   S
    Zr10   O100      1.05172      .   S
    Zr75   O100      1.05172      .   S
    Zr10   O101      1.05607      .   S
    Zr67   O101      1.05607      .   S
    Zr10   O102      1.05343      .   S
    Zr81   O102      1.05343      .   S
    Zr31   O103      0.62874      .   S
    Zr75   O103      0.62874      .   S
    Zr67   O104      0.63145      .   S
    Zr27   O104      0.63145      .   S
    Zr80   O105      0.64463      .   S
    Zr34   O105      0.64463      .   S
    Zr66   O106      0.64498      .   S
    Zr27   O106      0.64498      .   S
    Zr81   O107      0.63112      .   S
    Zr34   O107      0.63112      .   S
    Zr22   O108      0.63151      .   S
    Zr57   O108      0.63151      .   S
    Zr22   O109      0.64523      .   S
    Zr56   O109      0.64523      .   S
    Zr15   O110      0.64514      .   S
    Zr42   O110      0.64514      .   S
    Zr15   O111      0.63215      .   S
    Zr43   O111      0.63215      .   S
    Zr57   O112      1.05307  1_655   S
    Zr4    O112      1.05307      .   S
    Zr42   O113      0.98042  1_455   S
    Zr5    O113      0.98042      .   S
    Zr56   O114      0.97791      .   S
    Zr3    O114      0.97791  1_455   S
    Zr43   O115      1.05616      .   S
    Zr4    O115      1.05616      .   S
    Zr51   O116      0.62878      .   S
    Zr19   O116      0.62878      .   S
    Zr51   O117      1.05239      .   S
    Zr4    O117      1.05239  1_455   S
    Zr19   O118      0.64797      .   S
    Zr50   O118      0.64797      .   S
    Zr48   O119      0.98580      .   S
    Zr3    O119      0.98580      .   S
    Zr48   O120      0.64606      .   S
    Zr18   O120      0.64606      .   S
    Zr4    O121      1.05598      .   S
    Zr49   O121      1.05598      .   S
    Zr4    O122      1.06701  1_455   S
    Zr53   O122      1.06701      .   S
    Zr4    O123      1.05285      .   S
    Zr47   O123      1.05285      .   S
    Zr5    O124      0.99095      .   S
    Zr50   O124      0.99095      .   S
    Zr5    O125      0.98392  1_655   S
    Zr46   O125      0.98392      .   S
    Zr3    O126      0.98406      .   S
    Zr52   O126      0.98406  1_655   S
    Zr18   O127      0.63163      .   S
    Zr49   O127      0.63163      .   S
    Zr53   O128      0.63032      .   S
    Zr20   O128      0.63032      .   S
    Zr46   O129      0.64522      .   S
    Zr17   O129      0.64522      .   S
    Zr52   O130      0.64569      .   S
    Zr20   O130      0.64569      .   S
    Zr47   O131      0.63026      .   S
    Zr17   O131      0.63026      .   S
    Zr35   O132      0.63027      .   S
    Zr83   O132      0.63027      .   S
    Zr35   O133      0.64522      .   S
    Zr82   O133      0.64522      .   S
    Zr26   O134      0.64569      .   S
    Zr64   O134      0.64569      .   S
    Zr26   O135      0.63032      .   S
    Zr65   O135      0.63032      .   S
    Zr83   O136      1.05284      .   S
    Zr7    O136      1.05284      .   S
    Zr64   O137      0.98417  1_455   S
    Zr6    O137      0.98417      .   S
    Zr82   O138      0.98392      .   S
    Zr8    O138      0.98392  1_455   S
    Zr65   O139      1.06700      .   S
    Zr7    O139      1.06700  1_655   S
    Zr61   O140      0.63169      .   S
    Zr24   O140      0.63169      .   S
    Zr61   O141      1.05608      .   S
    Zr7    O141      1.05608      .   S
    Zr24   O142      0.64615      .   S
    Zr60   O142      0.64615      .   S
    Zr62   O143      0.99097      .   S
    Zr8    O143      0.99097      .   S
    Zr62   O144      0.64797      .   S
    Zr25   O144      0.64797      .   S
    Zr6    O145      0.98578      .   S
    Zr60   O145      0.98578      .   S
    Zr6    O146      0.97781  1_655   S
    Zr68   O146      0.97781      .   S
    Zr8    O147      0.98009      .   S
    Zr78   O147      0.98009  1_655   S
    Zr7    O148      1.05239  1_655   S
    Zr63   O148      1.05239      .   S
    Zr7    O149      1.05434      .   S
    Zr79   O149      1.05434      .   S
    Zr7    O150      1.05197      .   S
    Zr69   O150      1.05197  1_455   S
    Zr25   O151      0.62877      .   S
    Zr63   O151      0.62877      .   S
    Zr79   O152      0.63407      .   S
    Zr33   O152      0.63407      .   S
    Zr68   O153      0.64468      .   S
    Zr28   O153      0.64468      .   S
    Zr78   O154      0.64508      .   S
    Zr33   O154      0.64508      .   S
    Zr69   O155      0.64581      .   S
    Zr28   O155      0.64581      .   S
    Zr16   O156      0.63114      .   S
    Zr45   O156      0.63114      .   S
    Zr16   O157      0.64463      .   S
    Zr44   O157      0.64463      .   S
    Zr21   O158      0.64498      .   S
    Zr54   O158      0.64498      .   S
    Zr21   O159      0.63153      .   S
    Zr55   O159      0.63153      .   S
    Zr45   O160      1.05343      .   S
    Zr1    O160      1.05343      .   S
    Zr54   O161      0.98057      .   S
    Zr2    O161      0.98057      .   S
    Zr44   O162      0.97775      .   S
    Zr0    O162      0.97775      .   S
    Zr55   O163      1.05606      .   S
    Zr1    O163      1.05606      .   S
    Zr39   O164      0.62875      .   S
    Zr13   O164      0.62875      .   S
    Zr39   O165      1.05176      .   S
    Zr1    O165      1.05176      .   S
    Zr13   O166      0.64796      .   S
    Zr38   O166      0.64796      .   S
    Zr36   O167      0.98549      .   S
    Zr0    O167      0.98549      .   S
    Zr36   O168      0.64607      .   S
    Zr12   O168      0.64607      .   S
    Zr1    O169      1.05625      .   S
    Zr37   O169      1.05625      .   S
    Zr1    O170      1.06623      .   S
    Zr41   O170      1.06623      .   S
    Zr1    O171      1.05324      .   S
    Zr59   O171      1.05324      .   S
    Zr2    O172      0.98994      .   S
    Zr38   O172      0.98994      .   S
    Zr2    O173      0.98356      .   S
    Zr58   O173      0.98356      .   S
    Zr0    O174      0.98424      .   S
    Zr40   O174      0.98424      .   S
    Zr12   O175      0.63178      .   S
    Zr37   O175      0.63178      .   S
    Zr41   O176      0.63040      .   S
    Zr14   O176      0.63040      .   S
    Zr58   O177      0.64524      .   S
    Zr23   O177      0.64524      .   S
    Zr40   O178      0.64565      .   S
    Zr14   O178      0.64565      .   S
    Zr59   O179      0.63025      .   S
    Zr23   O179      0.63025      .   S
    N180   O181      2.15491      .   S
    Zr22   O181      2.90071      .   S
    N180   O182      2.15569      .   S
    Zr23   O182      2.90201  1_556   S
    N183   O184      2.28924  1_655   S
    Zr3    O184      3.33196      .   S
    N183   O185      2.29125      .   S
    Zr5    O185      3.33749  1_545   S
    N186   O187      2.15368      .   S
    Zr27   O187      2.90108      .   S
    N186   O188      2.15700      .   S
    Zr26   O188      2.90513      .   S
    N189   O190      2.15426      .   S
    Zr15   O190      2.90090      .   S
    N189   O191      2.15613      .   S
    Zr14   O191      2.90426  1_556   S
    N192   O193      2.15818      .   S
    Zr13   O193      2.90550      .   S
    N192   O194      2.15596  1_455   S
    Zr12   O194      2.90147      .   S
    N195   O196      2.15454      .   S
    Zr33   O196      2.90195      .   S
    N195   O197      2.15628      .   S
    Zr32   O197      2.90453  1_554   S
    N198   O199      2.15534      .   S
    Zr28   O199      2.90206      .   S
    N198   O200      2.15551      .   S
    Zr29   O200      2.90223  1_554   S
    N201   O202      2.15626      .   S
    Zr18   O202      2.90190      .   S
    N201   O203      2.15847      .   S
    Zr19   O203      2.90591      .   S
    N204   O205      2.15547      .   S
    Zr16   O205      2.90228      .   S
    N204   O206      2.15603      .   S
    Zr17   O206      2.90235      .   S
    N207   O208      2.15595  1_655   S
    Zr30   O208      2.90147      .   S
    N207   O209      2.15819      .   S
    Zr31   O209      2.90550      .   S
    N210   O211      2.15617      .   S
    Zr20   O211      2.90431      .   S
    N210   O212      2.15453      .   S
    Zr21   O212      2.90193      .   S
    N213   O214      2.15660      .   S
    Zr35   O214      2.90292      .   S
    N213   O215      2.15490      .   S
    Zr34   O215      2.90168      .   S
    N216   O217      2.29128      .   S
    Zr8    O217      3.33749  1_565   S
    N216   O218      2.28921  1_455   S
    Zr6    O218      3.33196      .   S
    N219   O220      2.28891      .   S
    Zr9    O220      3.33141  1_565   S
    N219   O221      2.29071      .   S
    Zr11   O221      3.33636      .   S
    N222   O223      2.15847      .   S
    Zr25   O223      2.90591      .   S
    N222   O224      2.15625      .   S
    Zr24   O224      2.90190      .   S
    N225   O226      2.28891      .   S
    Zr0    O226      3.33140  1_545   S
    N225   O227      2.29071      .   S
    Zr2    O227      3.33636      .   S
