# CIF file generated by openbabel 2.4.90, see http://openbabel.sf.net
data_I
_chemical_name_common ''
_cell_length_a 12.906
_cell_length_b 14.615
_cell_length_c 15.125
_cell_angle_alpha 90.005
_cell_angle_beta 90.014
_cell_angle_gamma 89.976
_space_group_name_H-M_alt 'P 1'
_space_group_name_Hall 'P 1'
loop_
    _symmetry_equiv_pos_as_xyz
    x,y,z
loop_
    _atom_site_label
    _atom_site_type_symbol
    _atom_site_fract_x
    _atom_site_fract_y
    _atom_site_fract_z
    _atom_site_occupancy
    Lv0     Lv   0.46842   0.42891   0.64983   1.000
    Lv1     Lv   0.21849   0.06900   0.34814   1.000
    Lv2     Lv   0.03229   0.93046   0.84824   1.000
    Lv3     Lv   0.95796   0.42985   0.65196   1.000
    Lv4     Lv   0.71771   0.06908   0.35021   1.000
    Lv5     Lv   0.78167   0.56869   0.15173   1.000
    Lv6     Lv   0.53153   0.92890   0.85019   1.000
    Lv7     Lv   0.28223   0.56913   0.14997   1.000
