# CIF file generated by openbabel 2.4.90, see http://openbabel.sf.net
data_I
_chemical_name_common ''
_cell_length_a 12.906
_cell_length_b 14.615
_cell_length_c 15.125
_cell_angle_alpha 90.005
_cell_angle_beta 90.014
_cell_angle_gamma 89.976
_space_group_name_H-M_alt 'P 1'
_space_group_name_Hall 'P 1'
loop_
    _symmetry_equiv_pos_as_xyz
    x,y,z
loop_
    _atom_site_label
    _atom_site_type_symbol
    _atom_site_fract_x
    _atom_site_fract_y
    _atom_site_fract_z
    _atom_site_occupancy
    Zr0     Zr   0.43310   0.79656   0.46521   1.000
    Zr1     Zr   0.93263   0.79731   0.46586   1.000
    Zr2     Zr   0.31691   0.20174   0.96431   1.000
    Zr3     Zr   0.81679   0.20124   0.96631   1.000
    Zr4     Zr   0.06685   0.29762   0.03462   1.000
    Zr5     Zr   0.56678   0.29646   0.03482   1.000
    Zr6     Zr   0.18309   0.70184   0.53390   1.000
    Zr7     Zr   0.68276   0.70147   0.53559   1.000
    N8      N    0.46842   0.42891   0.64983   1.000
    N9      N    0.21849   0.06900   0.34814   1.000
    N10     N    0.03229   0.93046   0.84824   1.000
    N11     N    0.95796   0.42985   0.65196   1.000
    N12     N    0.71771   0.06908   0.35021   1.000
    N13     N    0.78167   0.56869   0.15173   1.000
    N14     N    0.53153   0.92890   0.85019   1.000
    N15     N    0.28223   0.56913   0.14997   1.000
    C16     C    0.19049   0.15416   0.12400   1.000
    O17     O    0.14506   0.20349   0.10770   1.000
    O18     O    0.19686   0.12028   0.19447   1.000
    O19     O    0.23679   0.15678   0.07304   1.000
    C20     C    0.93788   0.34509   0.87601   1.000
    O21     O    0.94235   0.37883   0.80554   1.000
    O22     O    0.89310   0.29565   0.89253   1.000
    O23     O    0.98480   0.34252   0.92672   1.000
    C24     C    0.06678   0.16310   0.93651   1.000
    O25     O    0.98517   0.16996   0.95270   1.000
    O26     O    0.04769   0.19405   0.96978   1.000
    O27     O    0.05830   0.08963   0.90201   1.000
    O28     O    0.14837   0.18115   0.93911   1.000
    O29     O    0.08586   0.20513   0.95669   1.000
    C30     C    0.56708   0.16209   0.93658   1.000
    O31     O    0.64869   0.18009   0.93969   1.000
    O32     O    0.58619   0.20390   0.95682   1.000
    O33     O    0.48534   0.16952   0.95219   1.000
    O34     O    0.54781   0.19319   0.96982   1.000
    O35     O    0.55822   0.08841   0.90263   1.000
    C36     C    0.31667   0.33640   0.06232   1.000
    O37     O    0.30816   0.40988   0.09668   1.000
    O38     O    0.33577   0.29431   0.04223   1.000
    O39     O    0.39824   0.31799   0.05986   1.000
    O40     O    0.23513   0.32942   0.04658   1.000
    O41     O    0.29765   0.30545   0.02900   1.000
    C42     C    0.81677   0.33594   0.06424   1.000
    O43     O    0.80811   0.40945   0.09853   1.000
    O44     O    0.83591   0.29393   0.04405   1.000
    O45     O    0.89843   0.31802   0.06112   1.000
    O46     O    0.79759   0.30490   0.03108   1.000
    O47     O    0.73509   0.32870   0.04821   1.000
    C48     C    0.43962   0.34239   0.87347   1.000
    O49     O    0.44635   0.37671   0.80321   1.000
    O50     O    0.39445   0.29385   0.88992   1.000
    O51     O    0.48601   0.34006   0.92504   1.000
    C52     C    0.68841   0.15439   0.12614   1.000
    O53     O    0.73517   0.15688   0.07506   1.000
    O54     O    0.69525   0.12046   0.19659   1.000
    O55     O    0.64347   0.20333   0.10945   1.000
    C56     C    0.06047   0.84587   0.62448   1.000
    O57     O    0.05413   0.87957   0.69485   1.000
    O58     O    0.01339   0.84284   0.57401   1.000
    O59     O    0.10601   0.79656   0.60768   1.000
    C60     C    0.80954   0.65404   0.37579   1.000
    O61     O    0.85489   0.70330   0.39231   1.000
    O62     O    0.80324   0.62010   0.30534   1.000
    O63     O    0.76308   0.65666   0.42673   1.000
    C64     C    0.56036   0.84234   0.62654   1.000
    O65     O    0.60545   0.79373   0.61006   1.000
    O66     O    0.51395   0.84006   0.57498   1.000
    O67     O    0.55362   0.87667   0.69680   1.000
    C68     C    0.93309   0.66261   0.56400   1.000
    O69     O    0.91383   0.70458   0.54373   1.000
    O70     O    0.85137   0.68062   0.56117   1.000
    O71     O    0.93919   0.58911   0.59843   1.000
    O72     O    0.95215   0.69370   0.53080   1.000
    O73     O    0.01477   0.66983   0.54781   1.000
    C74     C    0.68308   0.83632   0.43772   1.000
    O75     O    0.69165   0.90982   0.40341   1.000
    O76     O    0.76454   0.82927   0.45359   1.000
    O77     O    0.70208   0.80531   0.47102   1.000
    O78     O    0.60154   0.81798   0.44016   1.000
    O79     O    0.66396   0.79421   0.45776   1.000
    C80     C    0.31139   0.65443   0.37406   1.000
    O81     O    0.30459   0.62049   0.30361   1.000
    O82     O    0.26462   0.65709   0.42513   1.000
    O83     O    0.35639   0.70335   0.39072   1.000
    C84     C    0.43264   0.66214   0.56347   1.000
    O85     O    0.44158   0.58845   0.59741   1.000
    O86     O    0.41359   0.70398   0.54326   1.000
    O87     O    0.35109   0.68030   0.56043   1.000
    O88     O    0.45193   0.69324   0.53019   1.000
    O89     O    0.51435   0.66946   0.54778   1.000
    C90     C    0.18293   0.83664   0.43599   1.000
    O91     O    0.19176   0.91001   0.40157   1.000
    O92     O    0.10114   0.81859   0.43926   1.000
    O93     O    0.16375   0.79472   0.45627   1.000
    O94     O    0.26471   0.82915   0.45190   1.000
    O95     O    0.20221   0.80547   0.46907   1.000
loop_
    _geom_bond_atom_site_label_1
    _geom_bond_atom_site_label_2
    _geom_bond_distance
    _geom_bond_site_symmetry_2
    _ccdc_geom_bond_type
    C16    O17       0.96132      .   S
    Zr4    O17       2.03271      .   S
    C16    O18       1.17807      .   S
    N9     O18       2.45807      .   S
    C16    O19       0.97612      .   S
    Zr2    O19       2.05113  1_556   S
    C20    O21       1.17591      .   S
    N11    O21       2.44817      .   S
    C20    O22       0.95863      .   S
    Zr3    O22       2.02997      .   S
    C20    O23       0.97776      .   S
    Zr4    O23       2.05279  1_454   S
    C24    O25       1.08599  1_455   S
    Zr3    O25       2.23012      .   S
    C24    O26       0.72007      .   S
    Zr4    O26       1.82050  1_554   S
    C24    O27       1.19880      .   S
    N10    O27       2.48723  1_565   S
    C24    O28       1.08639      .   S
    Zr2    O28       2.22871      .   S
    C24    O29       0.72872      .   S
    Zr4    O29       1.81018  1_554   S
    C30    O31       1.08670      .   S
    Zr3    O31       2.22810      .   S
    C30    O32       0.72658      .   S
    Zr5    O32       1.81220  1_554   S
    C30    O33       1.08651      .   S
    Zr2    O33       2.23159      .   S
    C30    O34       0.72198      .   S
    Zr5    O34       1.81769  1_554   S
    C30    O35       1.19843      .   S
    N14    O35       2.48655  1_565   S
    C36    O37       1.19806      .   S
    N15    O37       2.48557      .   S
    C36    O38       0.72892      .   S
    Zr2    O38       1.81069  1_556   S
    C36    O39       1.08715      .   S
    Zr5    O39       2.23020      .   S
    C36    O40       1.08366      .   S
    Zr4    O40       2.22850      .   S
    C36    O41       0.72024      .   S
    Zr2    O41       1.82107  1_556   S
    C42    O43       1.19809      .   S
    N13    O43       2.48578      .   S
    C42    O44       0.72885      .   S
    Zr3    O44       1.81056  1_556   S
    C42    O45       1.08680      .   S
    Zr4    O45       2.23037  1_455   S
    C42    O46       0.72018      .   S
    Zr3    O46       1.82090  1_556   S
    C42    O47       1.08683      .   S
    Zr5    O47       2.23208      .   S
    C48    O49       1.17846      .   S
    N8     O49       2.45874      .   S
    C48    O50       0.95163      .   S
    Zr2    O50       2.02030      .   S
    C48    O51       0.98369      .   S
    Zr5    O51       2.06122  1_554   S
    C52    O53       0.98110      .   S
    Zr3    O53       2.05850  1_556   S
    C52    O54       1.17849      .   S
    N12    O54       2.45892      .   S
    C52    O55       0.95468      .   S
    Zr5    O55       2.02602      .   S
    C56    O57       1.17563      .   S
    N10    O57       2.45249      .   S
    C56    O58       0.97655      .   S
    Zr1    O58       2.05050  1_655   S
    C56    O59       0.96384      .   S
    Zr6    O59       2.03727      .   S
    C60    O61       0.96096      .   S
    Zr1    O61       2.03290      .   S
    C60    O62       1.17803      .   S
    N13    O62       2.45767      .   S
    C60    O63       0.97720      .   S
    Zr7    O63       2.05291      .   S
    C64    O65       0.95147      .   S
    Zr7    O65       2.02027      .   S
    C64    O66       0.98377      .   S
    Zr0    O66       2.06125      .   S
    C64    O67       1.17843      .   S
    N14    O67       2.45884      .   S
    C68    O69       0.72933      .   S
    Zr1    O69       1.81210      .   S
    C68    O70       1.08783      .   S
    Zr7    O70       2.23083      .   S
    C68    O71       1.19635      .   S
    N11    O71       2.47615      .   S
    C68    O72       0.72067      .   S
    Zr1    O72       1.82245      .   S
    C68    O73       1.08745  1_655   S
    Zr6    O73       2.23239      .   S
    C74    O75       1.19817      .   S
    N12    O75       2.48586  1_545   S
    C74    O76       1.08319      .   S
    Zr1    O76       2.22658      .   S
    C74    O77       0.72047      .   S
    Zr7    O77       1.82205      .   S
    C74    O78       1.08668      .   S
    Zr0    O78       2.22905      .   S
    C74    O79       0.72924      .   S
    Zr7    O79       1.81156      .   S
    C80    O81       1.17846      .   S
    N15    O81       2.45891      .   S
    C80    O82       0.98118      .   S
    Zr6    O82       2.05949      .   S
    C80    O83       0.95512      .   S
    Zr0    O83       2.02630      .   S
    C84    O85       1.19861      .   S
    N8     O85       2.48692      .   S
    C84    O86       0.72648      .   S
    Zr0    O86       1.81339      .   S
    C84    O87       1.08632      .   S
    Zr6    O87       2.22714      .   S
    C84    O88       0.72259      .   S
    Zr0    O88       1.81803      .   S
    C84    O89       1.08621      .   S
    Zr7    O89       2.23117      .   S
    C90    O91       1.19750      .   S
    N9     O91       2.48442  1_545   S
    C90    O92       1.08929      .   S
    Zr1    O92       2.23360  1_655   S
    C90    O93       0.72864      .   S
    Zr6    O93       1.81205      .   S
    C90    O94       1.08802      .   S
    Zr0    O94       2.23363      .   S
    C90    O95       0.72091      .   S
    Zr6    O95       1.82127      .   S
