# CIF file generated by openbabel 2.4.90, see http://openbabel.sf.net
data_I
_chemical_name_common ''
_cell_length_a 12.7072
_cell_length_b 12.778
_cell_length_c 18.446
_cell_angle_alpha 90.23
_cell_angle_beta 90.0279
_cell_angle_gamma 60.2818
_space_group_name_H-M_alt 'P 1'
_space_group_name_Hall 'P 1'
loop_
    _symmetry_equiv_pos_as_xyz
    x,y,z
loop_
    _atom_site_label
    _atom_site_type_symbol
    _atom_site_fract_x
    _atom_site_fract_y
    _atom_site_fract_z
    _atom_site_occupancy
    N0      N    0.57965   0.90681   0.42609   1.000
    N1      N    0.51325   0.58040   0.09352   1.000
    N2      N    0.48629   0.09261   0.90634   1.000
    N3      N    0.90660   0.51418   0.76010   1.000
    N4      N    0.42030   0.48638   0.57391   1.000
    N5      N    0.09421   0.41882   0.24000   1.000
    Zr6     Zr   0.36988   0.99993   0.16605   1.000
    O7      O    0.43325   0.97970   0.24309   1.000
    O8      O    0.41291   0.02004   0.08909   1.000
    Zr9     Zr   0.99940   0.63049   0.49987   1.000
    O10     O    0.97910   0.58765   0.57693   1.000
    O11     O    0.02008   0.56667   0.42287   1.000
    Zr12    Zr   0.63023   0.36927   0.83385   1.000
    O13     O    0.56681   0.41242   0.75690   1.000
    O14     O    0.58716   0.43278   0.91081   1.000
    O15     O    0.41140   0.87289   0.14728   1.000
    O16     O    0.28454   0.12682   0.18517   1.000
    O17     O    0.87221   0.71605   0.48082   1.000
    O18     O    0.58850   0.28359   0.85256   1.000
    O19     O    0.71585   0.41132   0.81483   1.000
    O20     O    0.12695   0.58870   0.51901   1.000
loop_
    _geom_bond_atom_site_label_1
    _geom_bond_atom_site_label_2
    _geom_bond_distance
    _geom_bond_site_symmetry_2
    _ccdc_geom_bond_type
    Zr6    O7        1.59065      .   S
    N0     O7        3.74497      .   S
    Zr6    O8        1.58847  1_565   S
    N2     O8        3.73889  1_556   S
    Zr9    O10       1.59161      .   S
    N3     O10       3.74597      .   S
    Zr9    O11       1.59059  1_655   S
    N5     O11       3.74481      .   S
    Zr12   O13       1.59142      .   S
    N4     O13       3.74538      .   S
    Zr12   O14       1.58903      .   S
    N1     O14       3.74080  1_554   S
    Zr6    O15       1.47636      .   S
    N1     O15       3.43560      .   S
    Zr6    O16       1.47712  1_565   S
    N5     O16       3.43783      .   S
    N0     O17       3.43701      .   S
    Zr9    O17       1.47695      .   S
    Zr12   O18       1.47568      .   S
    N2     O18       3.43357      .   S
    Zr12   O19       1.47553      .   S
    N3     O19       3.43416      .   S
    Zr9    O20       1.47637  1_655   S
    N4     O20       3.43595      .   S
