# CIF file generated by openbabel 2.4.90, see http://openbabel.sf.net
data_I
_chemical_name_common ''
_cell_length_a 12.7072
_cell_length_b 12.778
_cell_length_c 18.446
_cell_angle_alpha 90.23
_cell_angle_beta 90.0279
_cell_angle_gamma 60.2818
_space_group_name_H-M_alt 'P 1'
_space_group_name_Hall 'P 1'
loop_
    _symmetry_equiv_pos_as_xyz
    x,y,z
loop_
    _atom_site_label
    _atom_site_type_symbol
    _atom_site_fract_x
    _atom_site_fract_y
    _atom_site_fract_z
    _atom_site_occupancy
    N0      N    0.57965   0.90681   0.42609   1.000
    N1      N    0.07744   0.92169   0.33343   1.000
    N2      N    0.99872   0.07771   0.00123   1.000
    N3      N    0.51325   0.58040   0.09352   1.000
    N4      N    0.48629   0.09261   0.90634   1.000
    N5      N    0.90660   0.51418   0.76010   1.000
    N6      N    0.42030   0.48638   0.57391   1.000
    N7      N    0.09421   0.41882   0.24000   1.000
    N8      N    0.92220   0.00017   0.66674   1.000
    Zr9     Zr   0.36988   0.99993   0.16605   1.000
    O10     O    0.43325   0.97970   0.24309   1.000
    O11     O    0.39957   0.87675   0.14513   1.000
    O12     O    0.42323   0.86903   0.14944   1.000
    O13     O    0.41291   0.02004   0.08909   1.000
    O14     O    0.27663   0.12289   0.18735   1.000
    O15     O    0.29245   0.13075   0.18299   1.000
    Zr16    Zr   0.99940   0.63049   0.49987   1.000
    O17     O    0.86815   0.70826   0.48296   1.000
    O18     O    0.97910   0.58765   0.57693   1.000
    O19     O    0.13082   0.57692   0.51685   1.000
    O20     O    0.12307   0.60047   0.52118   1.000
    O21     O    0.02008   0.56667   0.42287   1.000
    O22     O    0.87627   0.72384   0.47868   1.000
    Zr23    Zr   0.63023   0.36927   0.83385   1.000
    O24     O    0.57668   0.29139   0.85041   1.000
    O25     O    0.60032   0.27579   0.85472   1.000
    O26     O    0.70798   0.42308   0.81700   1.000
    O27     O    0.72373   0.39955   0.81265   1.000
    O28     O    0.56681   0.41242   0.75690   1.000
    O29     O    0.58716   0.43278   0.91081   1.000
loop_
    _geom_bond_atom_site_label_1
    _geom_bond_atom_site_label_2
    _geom_bond_distance
    _geom_bond_site_symmetry_2
    _ccdc_geom_bond_type
    Zr9    O10       1.59065      .   S
    N0     O10       3.74497      .   S
    Zr9    O11       1.47477      .   S
    N3     O11       3.44707      .   S
    Zr9    O12       1.49094      .   S
    N3     O12       3.42971      .   S
    Zr9    O13       1.58847  1_565   S
    N4     O13       3.73889  1_556   S
    Zr9    O14       1.47536  1_565   S
    N7     O14       3.44924      .   S
    Zr9    O15       1.49184  1_565   S
    N7     O15       3.43200      .   S
    Zr16   O17       1.49164      .   S
    N0     O17       3.43117      .   S
    Zr16   O18       1.59161      .   S
    N5     O18       3.74597      .   S
    Zr16   O19       1.49116  1_655   S
    N6     O19       3.42990      .   S
    Zr16   O20       1.47455  1_655   S
    N6     O20       3.44758      .   S
    Zr16   O21       1.59059  1_655   S
    N7     O21       3.74481      .   S
    Zr16   O22       1.47523      .   S
    N0     O22       3.44842      .   S
    Zr23   O24       1.49011      .   S
    N4     O24       3.42790      .   S
    Zr23   O25       1.47423      .   S
    N4     O25       3.44483      .   S
    Zr23   O26       1.49033      .   S
    N5     O26       3.42815      .   S
    Zr23   O27       1.47370      .   S
    N5     O27       3.44575      .   S
    Zr23   O28       1.59142      .   S
    N6     O28       3.74538      .   S
    Zr23   O29       1.58903      .   S
    N3     O29       3.74080  1_554   S
