# CIF file generated by openbabel 2.4.90, see http://openbabel.sf.net
data_I
_chemical_name_common ''
_cell_length_a 12.7072
_cell_length_b 12.778
_cell_length_c 18.446
_cell_angle_alpha 90.23
_cell_angle_beta 90.0279
_cell_angle_gamma 60.2818
_space_group_name_H-M_alt 'P 1'
_space_group_name_Hall 'P 1'
loop_
    _symmetry_equiv_pos_as_xyz
    x,y,z
loop_
    _atom_site_label
    _atom_site_type_symbol
    _atom_site_fract_x
    _atom_site_fract_y
    _atom_site_fract_z
    _atom_site_occupancy
    Zr0     Zr   0.99940   0.63049   0.49987   1.000
    Zr1     Zr   0.36988   0.99993   0.16605   1.000
    Zr2     Zr   0.63023   0.36927   0.83385   1.000
    N3      N    0.57965   0.90681   0.42609   1.000
    O4      O    0.73691   0.78603   0.46606   1.000
    O5      O    0.49662   0.95948   0.32013   1.000
    O6      O    0.75315   0.81719   0.45749   1.000
    N7      N    0.07744   0.92169   0.33343   1.000
    N8      N    0.99872   0.07771   0.00123   1.000
    N9      N    0.51325   0.58040   0.09352   1.000
    O10     O    0.42926   0.75358   0.12421   1.000
    O11     O    0.47657   0.73814   0.13282   1.000
    O12     O    0.54409   0.49629   0.98778   1.000
    N13     N    0.48629   0.09261   0.90634   1.000
    O14     O    0.57041   0.18231   0.87559   1.000
    O15     O    0.52313   0.21352   0.86697   1.000
    O16     O    0.45594   0.04015   0.01213   1.000
    N17     N    0.90660   0.51418   0.76010   1.000
    O18     O    0.81723   0.42984   0.79146   1.000
    O19     O    0.78573   0.47689   0.80016   1.000
    O20     O    0.95881   0.54482   0.65400   1.000
    N21     N    0.42030   0.48638   0.57391   1.000
    O22     O    0.24674   0.57045   0.54248   1.000
    O23     O    0.26225   0.52335   0.53383   1.000
    O24     O    0.50340   0.45558   0.67995   1.000
    N25     N    0.09421   0.41882   0.24000   1.000
    O26     O    0.18339   0.24585   0.20865   1.000
    O27     O    0.21501   0.26158   0.19992   1.000
    O28     O    0.04076   0.50286   0.34587   1.000
    N29     N    0.92220   0.00017   0.66674   1.000
loop_
    _geom_bond_atom_site_label_1
    _geom_bond_atom_site_label_2
    _geom_bond_distance
    _geom_bond_site_symmetry_2
    _ccdc_geom_bond_type
    N3     O4        1.96681      .   S
    Zr0    O4        2.98328      .   S
    N3     O5        2.16592      .   S
    Zr1    O5        3.18130      .   S
    N3     O6        2.00207      .   S
    Zr0    O6        2.95047      .   S
    N9     O10       2.00143      .   S
    Zr1    O10       2.94953      .   S
    N9     O11       1.96541      .   S
    Zr1    O11       2.98188      .   S
    N9     O12       2.16308  1_554   S
    Zr2    O12       3.17806      .   S
    N13    O14       1.99966      .   S
    Zr2    O14       2.94846      .   S
    N13    O15       1.96470      .   S
    Zr2    O15       2.98023      .   S
    N13    O16       2.16198  1_556   S
    Zr1    O16       3.17694  1_565   S
    N17    O18       2.00120      .   S
    Zr2    O18       2.94740      .   S
    N17    O19       1.96508      .   S
    Zr2    O19       2.98066      .   S
    N17    O20       2.16547      .   S
    Zr0    O20       3.18323      .   S
    N21    O22       2.00222      .   S
    Zr0    O22       2.94909  1_655   S
    N21    O23       1.96575      .   S
    Zr0    O23       2.98233  1_655   S
    N21    O24       2.16524      .   S
    Zr2    O24       3.18285      .   S
    N25    O26       2.00261      .   S
    Zr1    O26       2.95072  1_565   S
    N25    O27       1.96747      .   S
    Zr1    O27       2.98367  1_565   S
    N25    O28       2.16564      .   S
    Zr0    O28       3.18118  1_655   S
