# CIF file generated by openbabel 2.4.90, see http://openbabel.sf.net
data_I
_chemical_name_common ''
_cell_length_a 15.614
_cell_length_b 17.228
_cell_length_c 18.405
_cell_angle_alpha 89.946
_cell_angle_beta 90.001
_cell_angle_gamma 90.006
_space_group_name_H-M_alt 'P 1'
_space_group_name_Hall 'P 1'
loop_
    _symmetry_equiv_pos_as_xyz
    x,y,z
loop_
    _atom_site_label
    _atom_site_type_symbol
    _atom_site_fract_x
    _atom_site_fract_y
    _atom_site_fract_z
    _atom_site_occupancy
    H0      H    0.46445   0.80169   0.35914   1.000
    H1      H    0.53908   0.72457   0.35739   1.000
    H2      H    0.60128   0.94361   0.25531   1.000
    H3      H    0.50167   0.93213   0.29904   1.000
    H4      H    0.73896   0.95146   0.33011   1.000
    H5      H    0.73325   0.94497   0.42595   1.000
    H6      H    0.67604   0.73233   0.43143   1.000
    H7      H    0.69694   0.81559   0.48612   1.000
    H8      H    0.59111   0.92756   0.48915   1.000
    H9      H    0.49487   0.92249   0.43897   1.000
    H10     H    0.70817   0.83202   0.25155   1.000
    H11     H    0.68343   0.74193   0.29406   1.000
    H12     H    0.03554   0.19829   0.85933   1.000
    H13     H    0.96086   0.27538   0.85742   1.000
    H14     H    0.89905   0.05631   0.75565   1.000
    H15     H    0.99850   0.06793   0.79958   1.000
    H16     H    0.76107   0.04844   0.83036   1.000
    H17     H    0.76670   0.05490   0.92618   1.000
    H18     H    0.82385   0.26758   0.93130   1.000
    H19     H    0.80292   0.18432   0.98618   1.000
    H20     H    0.90861   0.07238   0.98949   1.000
    H21     H    0.00000   0.07738   0.93949   1.000
    H22     H    0.79192   0.16785   0.75163   1.000
    H23     H    0.81658   0.25797   0.79398   1.000
    H24     H    0.53548   0.30165   0.14066   1.000
    H25     H    0.46075   0.22459   0.14253   1.000
    H26     H    0.39894   0.44365   0.24430   1.000
    H27     H    0.49844   0.43206   0.20045   1.000
    H28     H    0.26104   0.45159   0.16945   1.000
    H29     H    0.26680   0.44506   0.07364   1.000
    H30     H    0.32382   0.23243   0.06852   1.000
    H31     H    0.30296   0.31572   0.01370   1.000
    H32     H    0.40876   0.42763   0.01046   1.000
    H33     H    0.50508   0.42258   0.06055   1.000
    H34     H    0.29182   0.33215   0.24825   1.000
    H35     H    0.31647   0.24203   0.20590   1.000
    H36     H    0.96448   0.69842   0.64082   1.000
    H37     H    0.03923   0.77546   0.64250   1.000
    H38     H    0.10110   0.55637   0.74468   1.000
    H39     H    0.00155   0.56793   0.70086   1.000
    H40     H    0.23886   0.54850   0.66994   1.000
    H41     H    0.23323   0.55496   0.57410   1.000
    H42     H    0.17614   0.76764   0.56858   1.000
    H43     H    0.19700   0.68437   0.51389   1.000
    H44     H    0.09112   0.57245   0.51083   1.000
    H45     H    0.99486   0.57754   0.56098   1.000
    H46     H    0.20815   0.66787   0.74846   1.000
    H47     H    0.18350   0.75801   0.70599   1.000
    H48     H    0.53553   0.19830   0.64083   1.000
    H49     H    0.46089   0.27542   0.64258   1.000
    H50     H    0.39870   0.05638   0.74467   1.000
    H51     H    0.49831   0.06786   0.70093   1.000
    H52     H    0.26102   0.04853   0.66986   1.000
    H53     H    0.26672   0.05502   0.57400   1.000
    H54     H    0.32393   0.26766   0.56854   1.000
    H55     H    0.30304   0.18440   0.51385   1.000
    H56     H    0.40886   0.07243   0.51083   1.000
    H57     H    0.50510   0.07750   0.56101   1.000
    H58     H    0.29180   0.16797   0.74842   1.000
    H59     H    0.31654   0.25806   0.70591   1.000
    H60     H    0.96444   0.80170   0.14064   1.000
    H61     H    0.03912   0.72461   0.14255   1.000
    H62     H    0.10092   0.94368   0.24432   1.000
    H63     H    0.00147   0.93205   0.20039   1.000
    H64     H    0.23890   0.95155   0.16962   1.000
    H65     H    0.23328   0.94508   0.07379   1.000
    H66     H    0.17612   0.73241   0.06863   1.000
    H67     H    0.19705   0.81567   0.01379   1.000
    H68     H    0.09136   0.92761   0.01049   1.000
    H69     H    0.99498   0.92261   0.06040   1.000
    H70     H    0.20806   0.83214   0.24834   1.000
    H71     H    0.18340   0.74202   0.20599   1.000
    H72     H    0.46449   0.69833   0.85931   1.000
    H73     H    0.53922   0.77540   0.85744   1.000
    H74     H    0.60104   0.55634   0.75568   1.000
    H75     H    0.50154   0.56793   0.79952   1.000
    H76     H    0.73894   0.54840   0.83052   1.000
    H77     H    0.73318   0.55493   0.92634   1.000
    H78     H    0.67616   0.76756   0.93145   1.000
    H79     H    0.69701   0.68428   0.98627   1.000
    H80     H    0.59122   0.57236   0.98951   1.000
    H81     H    0.49490   0.57740   0.93943   1.000
    H82     H    0.70816   0.66785   0.75172   1.000
    H83     H    0.68351   0.75796   0.79407   1.000
    C84     C    0.57888   0.67317   0.79639   1.000
    C85     C    0.56959   0.58419   0.80207   1.000
    C86     C    0.60884   0.55487   0.87339   1.000
    C87     C    0.70487   0.57667   0.87568   1.000
    H88     H    0.03550   0.30157   0.35915   1.000
    H89     H    0.96074   0.22452   0.35739   1.000
    H90     H    0.89888   0.44362   0.25500   1.000
    H91     H    0.99843   0.43206   0.29911   1.000
    H92     H    0.76112   0.45149   0.33003   1.000
    H93     H    0.76675   0.44502   0.42587   1.000
    H94     H    0.82384   0.23234   0.43139   1.000
    H95     H    0.80297   0.31561   0.48608   1.000
    H96     H    0.90886   0.42754   0.48914   1.000
    H97     H    0.00000   0.42244   0.43899   1.000
    H98     H    0.79183   0.33211   0.25151   1.000
    H99     H    0.81647   0.24198   0.29398   1.000
    C100    C    0.57218   0.81761   0.43269   1.000
    C101    C    0.53324   0.78789   0.36078   1.000
    C102    C    0.57888   0.82680   0.29622   1.000
    C103    C    0.56969   0.91580   0.30172   1.000
    C104    C    0.60891   0.94505   0.37303   1.000
    C105    C    0.70491   0.92321   0.37535   1.000
    C106    C    0.71513   0.83467   0.36993   1.000
    C107    C    0.66846   0.79564   0.43469   1.000
    C108    C    0.56309   0.90646   0.43817   1.000
    C109    C    0.67529   0.80513   0.29809   1.000
    C110    C    0.92773   0.18232   0.93283   1.000
    C111    C    0.96673   0.21206   0.86089   1.000
    C112    C    0.92116   0.17315   0.79637   1.000
    C113    C    0.93044   0.08418   0.80207   1.000
    C114    C    0.89111   0.05487   0.87336   1.000
    C115    C    0.79509   0.07668   0.87557   1.000
    C116    C    0.78485   0.16523   0.87000   1.000
    C117    C    0.83145   0.20427   0.93473   1.000
    C118    C    0.93679   0.09344   0.93850   1.000
    C119    C    0.82474   0.19477   0.79814   1.000
    C120    C    0.42775   0.31767   0.06712   1.000
    C121    C    0.46668   0.28791   0.13907   1.000
    C122    C    0.42110   0.32682   0.20358   1.000
    C123    C    0.43039   0.41580   0.19790   1.000
    C124    C    0.39114   0.44512   0.12658   1.000
    C125    C    0.29511   0.42332   0.12430   1.000
    C126    C    0.28484   0.33477   0.12980   1.000
    C127    C    0.33146   0.29574   0.06516   1.000
    C128    C    0.43687   0.40655   0.06140   1.000
    C129    C    0.32468   0.30522   0.20177   1.000
    C130    C    0.07222   0.68240   0.56729   1.000
    C131    C    0.03330   0.71215   0.63900   1.000
    C132    C    0.07888   0.67320   0.70376   1.000
    C133    C    0.06960   0.58421   0.69824   1.000
    C134    C    0.10884   0.55494   0.62696   1.000
    C135    C    0.20487   0.57675   0.62468   1.000
    C136    C    0.21514   0.66528   0.63010   1.000
    C137    C    0.16851   0.70433   0.56532   1.000
    C138    C    0.06309   0.59355   0.56180   1.000
    C139    C    0.17530   0.69482   0.70193   1.000
    C140    C    0.42779   0.18238   0.56720   1.000
    C141    C    0.46674   0.21210   0.63919   1.000
    C142    C    0.42109   0.17319   0.70375   1.000
    C143    C    0.43028   0.08419   0.69825   1.000
    C144    C    0.39107   0.05494   0.62695   1.000
    C145    C    0.29506   0.07677   0.62463   1.000
    C146    C    0.28484   0.16531   0.63005   1.000
    C147    C    0.33151   0.20435   0.56520   1.000
    C148    C    0.43688   0.09353   0.56180   1.000
    C149    C    0.32469   0.19486   0.70188   1.000
    C150    C    0.07225   0.81767   0.06714   1.000
    C151    C    0.03324   0.78793   0.13908   1.000
    C152    C    0.07881   0.82684   0.20360   1.000
    C153    C    0.06953   0.91581   0.19790   1.000
    C154    C    0.10886   0.94512   0.12661   1.000
    C155    C    0.20489   0.92331   0.12441   1.000
    C156    C    0.21513   0.83476   0.12997   1.000
    C157    C    0.16853   0.79572   0.06524   1.000
    C158    C    0.06318   0.90655   0.06146   1.000
    C159    C    0.17523   0.80522   0.20184   1.000
    C160    C    0.57223   0.68232   0.93286   1.000
    C161    C    0.53330   0.71208   0.86090   1.000
    C162    C    0.71513   0.66522   0.87010   1.000
    C163    C    0.66852   0.70425   0.93482   1.000
    C164    C    0.56312   0.59344   0.93852   1.000
    C165    C    0.67530   0.69477   0.79821   1.000
    C166    C    0.92776   0.31759   0.43268   1.000
    C167    C    0.96668   0.28784   0.36078   1.000
    C168    C    0.92110   0.32679   0.29621   1.000
    C169    C    0.93038   0.41578   0.30173   1.000
    C170    C    0.89114   0.44504   0.37302   1.000
    C171    C    0.79511   0.42324   0.37529   1.000
    C172    C    0.78484   0.33470   0.36988   1.000
    C173    C    0.83147   0.29565   0.43466   1.000
    C174    C    0.93689   0.40643   0.43817   1.000
    C175    C    0.82468   0.30517   0.29804   1.000
loop_
    _geom_bond_atom_site_label_1
    _geom_bond_atom_site_label_2
    _geom_bond_distance
    _geom_bond_site_symmetry_2
    _ccdc_geom_bond_type
    H32    C128      1.09676      .   S
    H68    C158      1.09756      .   S
    H31    C127      1.10128      .   S
    H67    C157      1.10116      .   S
    H69    C158      1.10048  1_655   S
    H33    C128      1.10045      .   S
    C128   C120      1.54127      .   S
    C128   C124      1.54663      .   S
    C158   C150      1.54117      .   S
    C158   C154      1.54579      .   S
    C127   C120      1.55062      .   S
    C127   H30       1.09888      .   S
    C127   C126      1.54887      .   S
    C157   C150      1.55057      .   S
    C157   H66       1.09888      .   S
    C157   C156      1.55003      .   S
    C120   C121      1.54428      .   S
    C150   C151      1.54441      .   S
    H29    C125      1.09750      .   S
    H65    C155      1.09753      .   S
    C125   C124      1.54637      .   S
    C125   C126      1.53702      .   S
    C125   H28       1.10073      .   S
    C155   C154      1.54637      .   S
    C155   C156      1.53715      .   S
    C155   H64       1.10080      .   S
    C124   C123      1.53381      .   S
    C154   C153      1.53375      .   S
    C126   C129      1.54903      .   S
    C156   C159      1.54776      .   S
    C121   H24       1.10049      .   S
    C121   H25       1.09654      .   S
    C121   C122      1.53858      .   S
    C151   H60       1.10066  1_455   S
    C151   H61       1.09653      .   S
    C151   C152      1.53854      .   S
    C123   H27       1.09994      .   S
    C123   C122      1.54309      .   S
    C123   H26       1.09615      .   S
    C153   H63       1.09996      .   S
    C153   C152      1.54306      .   S
    C153   H62       1.09612      .   S
    C129   C122      1.55115      .   S
    C129   H35       1.09878      .   S
    C129   H34       1.10048      .   S
    C159   C152      1.55123      .   S
    C159   H71       1.09880      .   S
    C159   H70       1.10044      .   S
    H98    C175      1.10053      .   S
    H10    C109      1.10059      .   S
    H90    C169      1.10041      .   S
    H2     C103      1.09615      .   S
    H99    C175      1.09880      .   S
    H11    C109      1.09880      .   S
    C168   C175      1.55127      .   S
    C168   C169      1.54340      .   S
    C168   C167      1.53872      .   S
    C102   C109      1.55126      .   S
    C102   C103      1.54337      .   S
    C102   C101      1.53869      .   S
    C175   C172      1.54772      .   S
    C109   C106      1.54775      .   S
    H3     C103      1.09992      .   S
    H91    C169      1.09995      .   S
    C103   C104      1.53380      .   S
    C169   C170      1.53380      .   S
    H92    C171      1.10081      .   S
    H4     C105      1.10089      .   S
    H1     C101      1.09653      .   S
    H89    C167      1.09655      .   S
    H0     C101      1.10052      .   S
    H88    C167      1.10066  1_455   S
    C167   C166      1.54421      .   S
    C101   C100      1.54425      .   S
    C172   C171      1.53698      .   S
    C172   C173      1.55007      .   S
    C106   C105      1.53706      .   S
    C106   C107      1.54993      .   S
    C170   C171      1.54623      .   S
    C170   C174      1.54569      .   S
    C104   C105      1.54618      .   S
    C104   C108      1.54579      .   S
    C171   H93       1.09740      .   S
    C105   H5        1.09738      .   S
    H94    C173      1.09889      .   S
    H6     C107      1.09888      .   S
    C166   C173      1.55058      .   S
    C166   C174      1.54074      .   S
    C100   C107      1.55063      .   S
    C100   C108      1.54074      .   S
    C173   H95       1.10112      .   S
    C107   H7        1.10111      .   S
    C108   H9        1.10051      .   S
    C108   H8        1.09752      .   S
    C174   H97       1.02330  1_655   S
    C174   H96       1.09748      .   S
    H44    C138      1.09749      .   S
    H56    C148      1.09736      .   S
    H55    C147      1.09983      .   S
    H43    C137      1.10127      .   S
    H45    C138      1.10050  1_655   S
    H57    C148      1.10050      .   S
    C148   C140      1.54065      .   S
    C148   C144      1.54592      .   S
    C138   C130      1.54074      .   S
    C138   C134      1.54582      .   S
    C147   C140      1.55062      .   S
    C147   H54       1.09897      .   S
    C147   C146      1.55119      .   S
    C137   C130      1.55058      .   S
    C137   H42       1.09888      .   S
    C137   C136      1.55008      .   S
    C140   C141      1.54552      .   S
    C130   C131      1.54120      .   S
    H53    C145      1.09786      .   S
    H41    C135      1.09739      .   S
    C145   C144      1.54617      .   S
    C145   C146      1.53704      .   S
    C145   H52       1.10074      .   S
    C135   C134      1.54623      .   S
    C135   C136      1.53699      .   S
    C135   H40       1.10081      .   S
    C144   C143      1.53364      .   S
    C134   C133      1.53363      .   S
    C146   C149      1.54761      .   S
    C136   C139      1.54756      .   S
    C131   H36       1.10075  1_455   S
    C131   H37       1.09667      .   S
    C131   C132      1.54142      .   S
    C141   H48       1.10052      .   S
    C141   H49       1.09654      .   S
    C141   C142      1.53868      .   S
    C133   H39       1.09995      .   S
    C133   C132      1.54339      .   S
    C133   H38       1.09625      .   S
    C143   H51       1.09993      .   S
    C143   C142      1.54337      .   S
    C143   H50       1.09628      .   S
    C149   C142      1.55125      .   S
    C149   H59       1.09880      .   S
    C149   H58       1.10058      .   S
    C139   C132      1.55127      .   S
    C139   H47       1.09880      .   S
    C139   H46       1.10052      .   S
    H22    C119      1.10060      .   S
    H82    C165      1.10059      .   S
    H14    C113      1.09614      .   S
    H74    C85       1.09602      .   S
    H23    C119      1.09881      .   S
    H83    C165      1.09880      .   S
    C112   C119      1.55124      .   S
    C112   C113      1.54304      .   S
    C112   C111      1.53854      .   S
    C84    C165      1.55116      .   S
    C84    C85       1.54310      .   S
    C84    C161      1.53857      .   S
    C119   C116      1.54761      .   S
    C165   C162      1.54777      .   S
    H75    C85       1.09994      .   S
    H15    C113      1.09996      .   S
    C113   C114      1.53376      .   S
    C85    C86       1.53381      .   S
    H16    C115      1.10080      .   S
    H76    C87       1.10087      .   S
    H13    C111      1.09653      .   S
    H73    C161      1.09654      .   S
    H72    C161      1.10051      .   S
    H12    C111      1.10066  1_455   S
    C111   C110      1.54441      .   S
    C161   C160      1.54443      .   S
    C116   C115      1.53717      .   S
    C116   C117      1.55004      .   S
    C162   C87       1.53713      .   S
    C162   C163      1.55003      .   S
    C114   C115      1.54636      .   S
    C114   C118      1.54565      .   S
    C86    C87       1.54636      .   S
    C86    C164      1.54591      .   S
    C115   H17       1.09736      .   S
    C87    H77       1.09750      .   S
    H18    C117      1.09892      .   S
    H78    C163      1.09887      .   S
    C110   C117      1.55057      .   S
    C110   C118      1.54117      .   S
    C160   C163      1.55062      .   S
    C160   C164      1.54120      .   S
    C117   H19       1.10116      .   S
    C163   H79       1.10113      .   S
    C118   H21       1.02516  1_655   S
    C118   H20       1.09786      .   S
    C164   H81       1.10046      .   S
    C164   H80       1.09756      .   S
