# CIF file generated by openbabel 2.4.90, see http://openbabel.sf.net
data_I
_chemical_name_common ''
_cell_length_a 15.614
_cell_length_b 17.228
_cell_length_c 18.405
_cell_angle_alpha 89.946
_cell_angle_beta 90.001
_cell_angle_gamma 90.006
_space_group_name_H-M_alt 'P 1'
_space_group_name_Hall 'P 1'
loop_
    _symmetry_equiv_pos_as_xyz
    x,y,z
loop_
    _atom_site_label
    _atom_site_type_symbol
    _atom_site_fract_x
    _atom_site_fract_y
    _atom_site_fract_z
    _atom_site_occupancy
    C0      C    0.53131   0.77662   0.49721   1.000
    C1      C    0.54035   0.79968   0.22417   1.000
    C2      C    0.60162   0.03361   0.37943   1.000
    C3      C    0.80863   0.80924   0.37576   1.000
    C4      C    0.96860   0.22332   0.99729   1.000
    C5      C    0.95971   0.20025   0.72426   1.000
    C6      C    0.89833   0.96626   0.87968   1.000
    C7      C    0.69134   0.19066   0.87576   1.000
    C8      C    0.46861   0.27667   0.00000   1.000
    C9      C    0.45965   0.29971   0.27570   1.000
    C10     C    0.39838   0.53370   0.12028   1.000
    C11     C    0.19133   0.30935   0.12414   1.000
    C12     C    0.03134   0.72338   0.50277   1.000
    C13     C    0.04034   0.70031   0.77581   1.000
    C14     C    0.10155   0.46641   0.62050   1.000
    C15     C    0.30865   0.69070   0.62425   1.000
    C16     C    0.46867   0.22337   0.50276   1.000
    C17     C    0.45963   0.20031   0.77580   1.000
    C18     C    0.39835   0.96638   0.62054   1.000
    C19     C    0.19134   0.19074   0.62421   1.000
    C20     C    0.03137   0.77667   0.00000   1.000
    C21     C    0.04027   0.79974   0.27571   1.000
    C22     C    0.10165   0.03372   0.12029   1.000
    C23     C    0.30864   0.80932   0.12421   1.000
    C24     C    0.53136   0.72332   0.99731   1.000
    C25     C    0.54033   0.70028   0.72428   1.000
    C26     C    0.60160   0.46628   0.87969   1.000
    C27     C    0.80865   0.69064   0.87583   1.000
    C28     C    0.96863   0.27661   0.49720   1.000
    C29     C    0.95963   0.29967   0.22417   1.000
    C30     C    0.89843   0.53358   0.37943   1.000
    C31     C    0.69133   0.30929   0.37572   1.000
