# CIF file generated by openbabel 2.4.90, see http://openbabel.sf.net
data_I
_chemical_name_common ''
_cell_length_a 15.614
_cell_length_b 17.228
_cell_length_c 18.405
_cell_angle_alpha 89.946
_cell_angle_beta 90.001
_cell_angle_gamma 90.006
_space_group_name_H-M_alt 'P 1'
_space_group_name_Hall 'P 1'
loop_
    _symmetry_equiv_pos_as_xyz
    x,y,z
loop_
    _atom_site_label
    _atom_site_type_symbol
    _atom_site_fract_x
    _atom_site_fract_y
    _atom_site_fract_z
    _atom_site_occupancy
    N0      N    0.61905   0.85585   0.36813   1.000
    N1      N    0.88070   0.35584   0.36810   1.000
    N2      N    0.38093   0.35591   0.13159   1.000
    N3      N    0.61905   0.64408   0.86837   1.000
    N4      N    0.88071   0.14408   0.86832   1.000
    N5      N    0.11904   0.64414   0.63185   1.000
    N6      N    0.38093   0.14414   0.63183   1.000
    N7      N    0.11903   0.85591   0.13165   1.000
    Zr8     Zr   0.55193   0.22680   0.38466   1.000
    O9      O    0.48326   0.20015   0.48403   1.000
    O10     O    0.68066   0.28286   0.37755   1.000
    O11     O    0.58204   0.07469   0.37842   1.000
    O12     O    0.48129   0.28069   0.28514   1.000
    Zr13    Zr   0.05194   0.22682   0.11523   1.000
    O14     O    0.18072   0.28290   0.12226   1.000
    O15     O    0.98319   0.20014   0.01596   1.000
    O16     O    0.98123   0.28068   0.21469   1.000
    O17     O    0.08204   0.07475   0.12139   1.000
    Zr18    Zr   0.94805   0.72679   0.38469   1.000
    O19     O    0.81926   0.78284   0.37759   1.000
    O20     O    0.91789   0.57468   0.37842   1.000
    O21     O    0.01673   0.70015   0.48406   1.000
    O22     O    0.01867   0.78069   0.28517   1.000
    Zr23    Zr   0.05193   0.27320   0.61527   1.000
    O24     O    0.98319   0.29983   0.51590   1.000
    O25     O    0.18072   0.21714   0.62238   1.000
    O26     O    0.08202   0.42531   0.62153   1.000
    O27     O    0.98125   0.21929   0.71480   1.000
    Zr28    Zr   0.94804   0.77316   0.88389   1.000
    O29     O    0.01868   0.71931   0.78486   1.000
    O30     O    0.01673   0.79985   0.98325   1.000
    O31     O    0.91788   0.92524   0.87816   1.000
    O32     O    0.81926   0.71708   0.87728   1.000
    Zr33    Zr   0.44804   0.77319   0.61529   1.000
    O34     O    0.51672   0.79984   0.51592   1.000
    O35     O    0.41793   0.92530   0.62154   1.000
    O36     O    0.51869   0.71930   0.71482   1.000
    O37     O    0.31926   0.71713   0.62240   1.000
    Zr38    Zr   0.44804   0.72681   0.11524   1.000
    O39     O    0.41794   0.57474   0.12138   1.000
    O40     O    0.51869   0.78068   0.21470   1.000
    O41     O    0.51673   0.70013   0.01599   1.000
    O42     O    0.31925   0.78289   0.12231   1.000
    Zr43    Zr   0.55193   0.27318   0.88388   1.000
    O44     O    0.68067   0.21709   0.87724   1.000
    O45     O    0.48129   0.21931   0.78484   1.000
    O46     O    0.48324   0.29986   0.98323   1.000
    O47     O    0.58203   0.42525   0.87817   1.000
loop_
    _geom_bond_atom_site_label_1
    _geom_bond_atom_site_label_2
    _geom_bond_distance
    _geom_bond_site_symmetry_2
    _ccdc_geom_bond_type
    Zr8    O9        2.16887      .   S
    N6     O9        3.29825      .   S
    Zr8    O10       2.23369      .   S
    N1     O10       3.37133      .   S
    Zr8    O11       2.66493      .   S
    N0     O11       3.81924  1_565   S
    Zr8    O12       2.33041      .   S
    N2     O12       3.48061      .   S
    Zr13   O14       2.23464      .   S
    N2     O14       3.37386      .   S
    Zr13   O15       2.16869  1_455   S
    N4     O15       3.29864  1_556   S
    Zr13   O16       2.33104  1_455   S
    N1     O16       3.48144      .   S
    Zr13   O17       2.66419      .   S
    N7     O17       3.81861  1_565   S
    Zr18   O19       2.23467      .   S
    N0     O19       3.37409      .   S
    Zr18   O20       2.66498      .   S
    N1     O20       3.81946      .   S
    Zr18   O21       2.16897  1_655   S
    N5     O21       3.29801      .   S
    Zr18   O22       2.33022  1_655   S
    N7     O22       3.48023      .   S
    Zr23   O24       2.16943  1_455   S
    N1     O24       3.29951      .   S
    Zr23   O25       2.23467      .   S
    N6     O25       3.37409      .   S
    Zr23   O26       2.66481      .   S
    N5     O26       3.81904      .   S
    Zr23   O27       2.33070  1_455   S
    N4     O27       3.48146      .   S
    Zr28   O29       2.32457  1_655   S
    N5     O29       3.47420      .   S
    Zr28   O30       2.16959  1_655   S
    N7     O30       3.30881  1_554   S
    Zr28   O31       2.66404      .   S
    N4     O31       3.81866  1_545   S
    Zr28   O32       2.23419      .   S
    N3     O32       3.37344      .   S
    Zr33   O34       2.16894      .   S
    N0     O34       3.29807      .   S
    Zr33   O35       2.66494      .   S
    N6     O35       3.81925  1_545   S
    Zr33   O36       2.33052      .   S
    N3     O36       3.48067      .   S
    Zr33   O37       2.23451      .   S
    N5     O37       3.37384      .   S
    Zr38   O39       2.66402      .   S
    N2     O39       3.81839      .   S
    Zr38   O40       2.33061      .   S
    N0     O40       3.48037      .   S
    Zr38   O41       2.16810      .   S
    N3     O41       3.29717  1_556   S
    Zr38   O42       2.23497      .   S
    N7     O42       3.37436      .   S
    Zr43   O44       2.23371      .   S
    N4     O44       3.37148      .   S
    Zr43   O45       2.32452      .   S
    N6     O45       3.47413      .   S
    Zr43   O46       2.16950      .   S
    N2     O46       3.30858  1_554   S
    Zr43   O47       2.66372      .   S
    N3     O47       3.81804      .   S
