# CIF file generated by openbabel 2.4.90, see http://openbabel.sf.net
data_I
_chemical_name_common ''
_cell_length_a 15.614
_cell_length_b 17.228
_cell_length_c 18.405
_cell_angle_alpha 89.946
_cell_angle_beta 90.001
_cell_angle_gamma 90.006
_space_group_name_H-M_alt 'P 1'
_space_group_name_Hall 'P 1'
loop_
    _symmetry_equiv_pos_as_xyz
    x,y,z
loop_
    _atom_site_label
    _atom_site_type_symbol
    _atom_site_fract_x
    _atom_site_fract_y
    _atom_site_fract_z
    _atom_site_occupancy
    Zr0     Zr   0.43364   0.82351   0.64100   1.000
    Zr1     Zr   0.48113   0.67020   0.58724   1.000
    Zr2     Zr   0.06636   0.17651   0.14100   1.000
    Zr3     Zr   0.01884   0.32978   0.08715   1.000
    Zr4     Zr   0.56637   0.32349   0.85893   1.000
    Zr5     Zr   0.51885   0.17021   0.91282   1.000
    Zr6     Zr   0.93363   0.67646   0.35899   1.000
    Zr7     Zr   0.98113   0.82978   0.41274   1.000
    Zr8     Zr   0.56633   0.17648   0.35897   1.000
    Zr9     Zr   0.51884   0.32979   0.41273   1.000
    Zr10    Zr   0.93361   0.82348   0.85894   1.000
    Zr11    Zr   0.98113   0.67020   0.91282   1.000
    Zr12    Zr   0.43361   0.67650   0.14104   1.000
    Zr13    Zr   0.48113   0.82977   0.08716   1.000
    Zr14    Zr   0.06635   0.32352   0.64098   1.000
    Zr15    Zr   0.01885   0.17020   0.58723   1.000
    Zr16    Zr   0.53131   0.77662   0.49721   1.000
    Zr17    Zr   0.54035   0.79968   0.22417   1.000
    Zr18    Zr   0.60162   0.03361   0.37943   1.000
    Zr19    Zr   0.80863   0.80924   0.37576   1.000
    Zr20    Zr   0.96860   0.22332   0.99729   1.000
    Zr21    Zr   0.95971   0.20025   0.72426   1.000
    Zr22    Zr   0.89833   0.96626   0.87968   1.000
    Zr23    Zr   0.69134   0.19066   0.87576   1.000
    Zr24    Zr   0.46861   0.27667   0.00000   1.000
    Zr25    Zr   0.45965   0.29971   0.27570   1.000
    Zr26    Zr   0.39838   0.53370   0.12028   1.000
    Zr27    Zr   0.19133   0.30935   0.12414   1.000
    Zr28    Zr   0.03134   0.72338   0.50277   1.000
    Zr29    Zr   0.04034   0.70031   0.77581   1.000
    Zr30    Zr   0.10155   0.46641   0.62050   1.000
    Zr31    Zr   0.30865   0.69070   0.62425   1.000
    Zr32    Zr   0.46867   0.22337   0.50276   1.000
    Zr33    Zr   0.45963   0.20031   0.77580   1.000
    Zr34    Zr   0.39835   0.96638   0.62054   1.000
    Zr35    Zr   0.19134   0.19074   0.62421   1.000
    Zr36    Zr   0.03137   0.77667   0.00000   1.000
    Zr37    Zr   0.04027   0.79974   0.27571   1.000
    Zr38    Zr   0.10165   0.03372   0.12029   1.000
    Zr39    Zr   0.30864   0.80932   0.12421   1.000
    Zr40    Zr   0.53136   0.72332   0.99731   1.000
    Zr41    Zr   0.54033   0.70028   0.72428   1.000
    Zr42    Zr   0.60160   0.46628   0.87969   1.000
    Zr43    Zr   0.80865   0.69064   0.87583   1.000
    Zr44    Zr   0.96863   0.27661   0.49720   1.000
    Zr45    Zr   0.95963   0.29967   0.22417   1.000
    Zr46    Zr   0.89843   0.53358   0.37943   1.000
    Zr47    Zr   0.69133   0.30929   0.37572   1.000
    Zr48    Zr   0.51876   0.81344   0.55595   1.000
    Zr49    Zr   0.51498   0.70341   0.49085   1.000
    Zr50    Zr   0.49584   0.73842   0.22207   1.000
    Zr51    Zr   0.55567   0.84362   0.16861   1.000
    Zr52    Zr   0.56585   0.06984   0.32480   1.000
    Zr53    Zr   0.62917   0.06888   0.43393   1.000
    Zr54    Zr   0.86336   0.86021   0.39684   1.000
    Zr55    Zr   0.82561   0.73874   0.36229   1.000
    Zr56    Zr   0.98114   0.18649   0.05609   1.000
    Zr57    Zr   0.98496   0.29653   0.99082   1.000
    Zr58    Zr   0.00422   0.26150   0.72208   1.000
    Zr59    Zr   0.94432   0.15638   0.66874   1.000
    Zr60    Zr   0.93400   0.93022   0.82501   1.000
    Zr61    Zr   0.87078   0.93078   0.93412   1.000
    Zr62    Zr   0.63658   0.13971   0.89688   1.000
    Zr63    Zr   0.67438   0.26119   0.86222   1.000
    Zr64    Zr   0.48115   0.31350   0.94387   1.000
    Zr65    Zr   0.48497   0.20346   0.00000   1.000
    Zr66    Zr   0.50411   0.23843   0.27780   1.000
    Zr67    Zr   0.44432   0.34360   0.33122   1.000
    Zr68    Zr   0.43402   0.56974   0.17496   1.000
    Zr69    Zr   0.37080   0.56919   0.06580   1.000
    Zr70    Zr   0.13657   0.36031   0.10307   1.000
    Zr71    Zr   0.17436   0.23883   0.13770   1.000
    Zr72    Zr   0.01879   0.68655   0.44403   1.000
    Zr73    Zr   0.01501   0.79658   0.50913   1.000
    Zr74    Zr   0.99583   0.76157   0.77790   1.000
    Zr75    Zr   0.05567   0.65637   0.83137   1.000
    Zr76    Zr   0.06580   0.43016   0.67510   1.000
    Zr77    Zr   0.12912   0.43116   0.56604   1.000
    Zr78    Zr   0.36336   0.63975   0.60310   1.000
    Zr79    Zr   0.32564   0.76120   0.63773   1.000
    Zr80    Zr   0.48121   0.18655   0.44402   1.000
    Zr81    Zr   0.48500   0.29658   0.50912   1.000
    Zr82    Zr   0.50414   0.26156   0.77790   1.000
    Zr83    Zr   0.44431   0.15637   0.83137   1.000
    Zr84    Zr   0.43412   0.93015   0.67510   1.000
    Zr85    Zr   0.37080   0.93111   0.56604   1.000
    Zr86    Zr   0.13662   0.13978   0.60313   1.000
    Zr87    Zr   0.17437   0.26125   0.63760   1.000
    Zr88    Zr   0.01883   0.81350   0.94388   1.000
    Zr89    Zr   0.01501   0.70345   0.00000   1.000
    Zr90    Zr   0.99575   0.73849   0.27789   1.000
    Zr91    Zr   0.05566   0.84361   0.33124   1.000
    Zr92    Zr   0.06598   0.06976   0.17496   1.000
    Zr93    Zr   0.12920   0.06920   0.06586   1.000
    Zr94    Zr   0.36340   0.86028   0.10310   1.000
    Zr95    Zr   0.32559   0.73880   0.13776   1.000
    Zr96    Zr   0.51883   0.68649   0.05610   1.000
    Zr97    Zr   0.51501   0.79653   0.99083   1.000
    Zr98    Zr   0.49587   0.76156   0.72209   1.000
    Zr99    Zr   0.55565   0.65638   0.66875   1.000
    Zr100   Zr   0.56595   0.43025   0.82500   1.000
    Zr101   Zr   0.62918   0.43079   0.93412   1.000
    Zr102   Zr   0.86340   0.63968   0.89690   1.000
    Zr103   Zr   0.82561   0.76116   0.86227   1.000
    Zr104   Zr   0.98118   0.31344   0.55590   1.000
    Zr105   Zr   0.98497   0.20340   0.49085   1.000
    Zr106   Zr   0.00414   0.23842   0.22207   1.000
    Zr107   Zr   0.94431   0.34361   0.16860   1.000
    Zr108   Zr   0.93418   0.56983   0.32487   1.000
    Zr109   Zr   0.87086   0.56883   0.43393   1.000
    Zr110   Zr   0.63662   0.36024   0.39683   1.000
    Zr111   Zr   0.67433   0.23878   0.36224   1.000
    O112    O    0.47679   0.24006   0.00000   1.000
    O113    O    0.47488   0.29508   0.97193   1.000
    O114    O    0.02319   0.74006   0.00000   1.000
    O115    O    0.99807   0.68683   0.95641   1.000
    O116    O    0.50191   0.18684   0.95641   1.000
    O117    O    0.02510   0.79508   0.97194   1.000
    O118    O    0.02375   0.18150   0.09855   1.000
    O119    O    0.97487   0.20491   0.02669   1.000
    O120    O    0.47622   0.68149   0.09857   1.000
    O121    O    0.52510   0.70490   0.02670   1.000
    O122    O    0.38459   0.55145   0.09304   1.000
    O123    O    0.11542   0.05146   0.09308   1.000
    O124    O    0.07771   0.34505   0.09511   1.000
    O125    O    0.98157   0.33670   0.12788   1.000
    O126    O    0.00190   0.31316   0.03899   1.000
    O127    O    0.42226   0.84502   0.09513   1.000
    O128    O    0.51840   0.83670   0.12788   1.000
    O129    O    0.49807   0.81315   0.03899   1.000
    O130    O    0.16395   0.33483   0.11360   1.000
    O131    O    0.33602   0.83480   0.11366   1.000
    O132    O    0.41620   0.55172   0.14762   1.000
    O133    O    0.08381   0.05174   0.14763   1.000
    O134    O    0.18285   0.27409   0.13092   1.000
    O135    O    0.31712   0.77406   0.13098   1.000
    O136    O    0.12036   0.20767   0.13935   1.000
    O137    O    0.37960   0.70765   0.13940   1.000
    O138    O    0.06617   0.12314   0.15798   1.000
    O139    O    0.03525   0.20746   0.18154   1.000
    O140    O    0.43382   0.62312   0.15800   1.000
    O141    O    0.46472   0.70746   0.18155   1.000
    O142    O    0.95197   0.32164   0.19639   1.000
    O143    O    0.54801   0.82165   0.19639   1.000
    O144    O    0.51809   0.76905   0.22312   1.000
    O145    O    0.98189   0.26905   0.22312   1.000
    O146    O    0.48188   0.26907   0.27675   1.000
    O147    O    0.45198   0.32166   0.30346   1.000
    O148    O    0.01801   0.76911   0.27680   1.000
    O149    O    0.04796   0.82167   0.30347   1.000
    O150    O    0.53522   0.20745   0.31839   1.000
    O151    O    0.96469   0.70747   0.31844   1.000
    O152    O    0.56609   0.12316   0.34188   1.000
    O153    O    0.58374   0.05172   0.35212   1.000
    O154    O    0.93391   0.62314   0.34193   1.000
    O155    O    0.91631   0.55170   0.35215   1.000
    O156    O    0.48158   0.33670   0.37198   1.000
    O157    O    0.01839   0.83670   0.37199   1.000
    O158    O    0.62033   0.20763   0.36061   1.000
    O159    O    0.52377   0.18151   0.40149   1.000
    O160    O    0.87962   0.70760   0.36064   1.000
    O161    O    0.97621   0.68151   0.40151   1.000
    O162    O    0.68283   0.27404   0.36898   1.000
    O163    O    0.81712   0.77399   0.36902   1.000
    O164    O    0.66397   0.33477   0.38627   1.000
    O165    O    0.83600   0.83473   0.38630   1.000
    O166    O    0.88464   0.55120   0.40668   1.000
    O167    O    0.61540   0.05125   0.40668   1.000
    O168    O    0.57773   0.34502   0.40478   1.000
    O169    O    0.92224   0.84499   0.40479   1.000
    O170    O    0.50192   0.31319   0.46093   1.000
    O171    O    0.99807   0.81318   0.46093   1.000
    O172    O    0.47494   0.20496   0.47339   1.000
    O173    O    0.02507   0.70496   0.47340   1.000
    O174    O    0.52314   0.74001   0.49403   1.000
    O175    O    0.49806   0.68680   0.53904   1.000
    O176    O    0.97680   0.24000   0.49402   1.000
    O177    O    0.00191   0.18680   0.53904   1.000
    O178    O    0.97491   0.29502   0.52655   1.000
    O179    O    0.52503   0.79503   0.52658   1.000
    O180    O    0.47683   0.25997   0.50594   1.000
    O181    O    0.02318   0.75998   0.50595   1.000
    O182    O    0.02377   0.31848   0.59844   1.000
    O183    O    0.47620   0.81848   0.59847   1.000
    O184    O    0.11534   0.44878   0.59327   1.000
    O185    O    0.38458   0.94874   0.59329   1.000
    O186    O    0.07773   0.15499   0.59518   1.000
    O187    O    0.98158   0.16329   0.62799   1.000
    O188    O    0.42225   0.65497   0.59517   1.000
    O189    O    0.51839   0.66329   0.62799   1.000
    O190    O    0.33601   0.66522   0.61367   1.000
    O191    O    0.16398   0.16526   0.61367   1.000
    O192    O    0.08367   0.44829   0.64780   1.000
    O193    O    0.41624   0.94826   0.64782   1.000
    O194    O    0.18285   0.22600   0.63090   1.000
    O195    O    0.31715   0.72595   0.63099   1.000
    O196    O    0.12036   0.29239   0.63929   1.000
    O197    O    0.37964   0.79236   0.63936   1.000
    O198    O    0.06607   0.37684   0.65804   1.000
    O199    O    0.03529   0.29251   0.68153   1.000
    O200    O    0.43388   0.87683   0.65805   1.000
    O201    O    0.46476   0.79253   0.68155   1.000
    O202    O    0.95201   0.17831   0.69650   1.000
    O203    O    0.54799   0.67833   0.69651   1.000
    O204    O    0.98196   0.23088   0.72317   1.000
    O205    O    0.51810   0.73092   0.72318   1.000
    O206    O    0.48188   0.23094   0.77685   1.000
    O207    O    0.45197   0.17834   0.80359   1.000
    O208    O    0.01809   0.73094   0.77686   1.000
    O209    O    0.04801   0.67834   0.80359   1.000
    O210    O    0.96472   0.79252   0.81842   1.000
    O211    O    0.53525   0.29253   0.81842   1.000
    O212    O    0.56616   0.37687   0.84196   1.000
    O213    O    0.58378   0.44826   0.85234   1.000
    O214    O    0.93380   0.87685   0.84198   1.000
    O215    O    0.91616   0.94824   0.85234   1.000
    O216    O    0.01840   0.66329   0.87210   1.000
    O217    O    0.48158   0.16329   0.87210   1.000
    O218    O    0.62037   0.29234   0.86057   1.000
    O219    O    0.52376   0.31849   0.90140   1.000
    O220    O    0.87961   0.79232   0.86060   1.000
    O221    O    0.97622   0.81849   0.90141   1.000
    O222    O    0.68286   0.22593   0.86899   1.000
    O223    O    0.81713   0.72590   0.86905   1.000
    O224    O    0.66396   0.16519   0.88632   1.000
    O225    O    0.83603   0.66516   0.88636   1.000
    O226    O    0.88455   0.94852   0.90690   1.000
    O227    O    0.61539   0.44854   0.90690   1.000
    O228    O    0.57771   0.15496   0.90485   1.000
    O229    O    0.92227   0.65494   0.90486   1.000
    O230    O    0.97678   0.25993   0.99406   1.000
    O231    O    0.52319   0.75992   0.99407   1.000
    N232    N    0.61905   0.85585   0.36813   1.000
    O233    O    0.58933   0.83454   0.31416   1.000
    O234    O    0.58540   0.82648   0.41654   1.000
    O235    O    0.61216   0.92259   0.37218   1.000
    O236    O    0.69047   0.83890   0.37049   1.000
    N237    N    0.88070   0.35584   0.36810   1.000
    O238    O    0.91053   0.33454   0.31414   1.000
    O239    O    0.88774   0.42258   0.37216   1.000
    O240    O    0.80939   0.33892   0.37045   1.000
    O241    O    0.91445   0.32647   0.41652   1.000
    N242    N    0.38093   0.35591   0.13159   1.000
    O243    O    0.41065   0.33459   0.18562   1.000
    O244    O    0.30951   0.33899   0.12928   1.000
    O245    O    0.38784   0.42266   0.12751   1.000
    O246    O    0.41455   0.32654   0.08258   1.000
    N247    N    0.61905   0.64408   0.86837   1.000
    O248    O    0.58933   0.66540   0.81435   1.000
    O249    O    0.69047   0.66100   0.87067   1.000
    O250    O    0.61214   0.57733   0.87246   1.000
    O251    O    0.58542   0.67345   0.91673   1.000
    N252    N    0.88071   0.14408   0.86832   1.000
    O253    O    0.91057   0.16539   0.81432   1.000
    O254    O    0.80940   0.16101   0.87060   1.000
    O255    O    0.91444   0.17345   0.91669   1.000
    O256    O    0.88772   0.07732   0.87242   1.000
    N257    N    0.11904   0.64414   0.63185   1.000
    O258    O    0.08933   0.66545   0.68582   1.000
    O259    O    0.19047   0.66107   0.62951   1.000
    O260    O    0.08541   0.67352   0.58344   1.000
    O261    O    0.11212   0.57741   0.62779   1.000
    N262    N    0.38093   0.14414   0.63183   1.000
    O263    O    0.41064   0.16545   0.68580   1.000
    O264    O    0.41458   0.17351   0.58341   1.000
    O265    O    0.38782   0.07740   0.62779   1.000
    O266    O    0.30951   0.16109   0.62948   1.000
    N267    N    0.11903   0.85591   0.13165   1.000
    O268    O    0.11214   0.92267   0.12755   1.000
    O269    O    0.08929   0.83460   0.18565   1.000
    O270    O    0.19046   0.83898   0.12937   1.000
    O271    O    0.08542   0.82654   0.08261   1.000
loop_
    _geom_bond_atom_site_label_1
    _geom_bond_atom_site_label_2
    _geom_bond_distance
    _geom_bond_site_symmetry_2
    _ccdc_geom_bond_type
    Zr24   O112      0.64343      .   S
    Zr65   O112      0.64343      .   S
    Zr24   O113      0.61377  1_554   S
    Zr64   O113      0.61377      .   S
    Zr89   O114      0.64344      .   S
    Zr36   O114      0.64344      .   S
    Zr89   O115      0.89221  1_454   S
    Zr11   O115      0.89221      .   S
    Zr65   O116      0.89223  1_554   S
    Zr5    O116      0.89223      .   S
    Zr36   O117      0.61371  1_554   S
    Zr88   O117      0.61371      .   S
    Zr56   O118      1.02980  1_655   S
    Zr2    O118      1.02980      .   S
    Zr56   O119      0.63459      .   S
    Zr20   O119      0.63459  1_556   S
    Zr96   O120      1.03001      .   S
    Zr12   O120      1.03001      .   S
    Zr96   O121      0.63450      .   S
    Zr40   O121      0.63450  1_556   S
    Zr69   O122      0.62520      .   S
    Zr26   O122      0.62520      .   S
    Zr93   O123      0.62473      .   S
    Zr38   O123      0.62473      .   S
    Zr3    O124      0.96716      .   S
    Zr70   O124      0.96716      .   S
    Zr3    O125      0.95646  1_455   S
    Zr107  O125      0.95646      .   S
    Zr3    O126      0.96865      .   S
    Zr57   O126      0.96865  1_656   S
    Zr13   O127      0.96722      .   S
    Zr94   O127      0.96722      .   S
    Zr13   O128      0.95648      .   S
    Zr51   O128      0.95648      .   S
    Zr13   O129      0.96867      .   S
    Zr97   O129      0.96867  1_556   S
    Zr70   O130      0.64261      .   S
    Zr27   O130      0.64261      .   S
    Zr94   O131      0.64261      .   S
    Zr39   O131      0.64261      .   S
    Zr26   O132      0.65368      .   S
    Zr68   O132      0.65368      .   S
    Zr38   O133      0.65371      .   S
    Zr92   O133      0.65371      .   S
    Zr27   O134      0.63402      .   S
    Zr71   O134      0.63402      .   S
    Zr39   O135      0.63403      .   S
    Zr95   O135      0.63403      .   S
    Zr71   O136      0.99994      .   S
    Zr2    O136      0.99994      .   S
    Zr95   O137      1.00006      .   S
    Zr12   O137      1.00006      .   S
    Zr2    O138      0.97090      .   S
    Zr92   O138      0.97090      .   S
    Zr2    O139      1.03815      .   S
    Zr106  O139      1.03815      .   S
    Zr12   O140      0.97086      .   S
    Zr68   O140      0.97086      .   S
    Zr12   O141      1.03793      .   S
    Zr50   O141      1.03793      .   S
    Zr107  O142      0.64710      .   S
    Zr45   O142      0.64710      .   S
    Zr51   O143      0.64701      .   S
    Zr17   O143      0.64701      .   S
    Zr50   O144      0.63208      .   S
    Zr17   O144      0.63208      .   S
    Zr106  O145      0.63213  1_455   S
    Zr45   O145      0.63213      .   S
    Zr25   O146      0.63204      .   S
    Zr66   O146      0.63204      .   S
    Zr25   O147      0.64708      .   S
    Zr67   O147      0.64708      .   S
    Zr37   O148      0.63209      .   S
    Zr90   O148      0.63209  1_655   S
    Zr37   O149      0.64711      .   S
    Zr91   O149      0.64711      .   S
    Zr66   O150      1.03830      .   S
    Zr8    O150      1.03830      .   S
    Zr90   O151      1.03770      .   S
    Zr6    O151      1.03770      .   S
    Zr52   O152      0.97121      .   S
    Zr8    O152      0.97121      .   S
    Zr52   O153      0.65408      .   S
    Zr18   O153      0.65408      .   S
    Zr108  O154      0.97105      .   S
    Zr6    O154      0.97105      .   S
    Zr108  O155      0.65361      .   S
    Zr46   O155      0.65361      .   S
    Zr67   O156      0.95661      .   S
    Zr9    O156      0.95661      .   S
    Zr91   O157      0.95660      .   S
    Zr7    O157      0.95660  1_655   S
    Zr8    O158      0.99992      .   S
    Zr111  O158      0.99992      .   S
    Zr8    O159      1.03046      .   S
    Zr80   O159      1.03046      .   S
    Zr6    O160      0.99998      .   S
    Zr55   O160      0.99998      .   S
    Zr6    O161      1.03059      .   S
    Zr72   O161      1.03059  1_455   S
    Zr111  O162      0.63402      .   S
    Zr47   O162      0.63402      .   S
    Zr55   O163      0.63402      .   S
    Zr19   O163      0.63402      .   S
    Zr47   O164      0.64264      .   S
    Zr110  O164      0.64264      .   S
    Zr19   O165      0.64264      .   S
    Zr54   O165      0.64264      .   S
    Zr46   O166      0.62481      .   S
    Zr109  O166      0.62481      .   S
    Zr18   O167      0.62481      .   S
    Zr53   O167      0.62481      .   S
    Zr110  O168      0.96721      .   S
    Zr9    O168      0.96721      .   S
    Zr54   O169      0.96716      .   S
    Zr7    O169      0.96716      .   S
    Zr9    O170      0.96850      .   S
    Zr81   O170      0.96850      .   S
    Zr7    O171      0.96854      .   S
    Zr73   O171      0.96854  1_455   S
    Zr80   O172      0.63459      .   S
    Zr32   O172      0.63459      .   S
    Zr72   O173      0.63463      .   S
    Zr28   O173      0.63463      .   S
    Zr49   O174      0.64612      .   S
    Zr16   O174      0.64612      .   S
    Zr49   O175      0.96850      .   S
    Zr1    O175      0.96850      .   S
    Zr105  O176      0.64610      .   S
    Zr44   O176      0.64610      .   S
    Zr105  O177      0.96846  1_655   S
    Zr15   O177      0.96846      .   S
    Zr44   O178      0.63431      .   S
    Zr104  O178      0.63431      .   S
    Zr16   O179      0.63459      .   S
    Zr48   O179      0.63459      .   S
    Zr32   O180      0.64611      .   S
    Zr81   O180      0.64611      .   S
    Zr28   O181      0.64611      .   S
    Zr73   O181      0.64611      .   S
    Zr104  O182      1.03087  1_655   S
    Zr14   O182      1.03087      .   S
    Zr48   O183      1.03047      .   S
    Zr0    O183      1.03047      .   S
    Zr77   O184      0.62452      .   S
    Zr30   O184      0.62452      .   S
    Zr85   O185      0.62480      .   S
    Zr34   O185      0.62480      .   S
    Zr15   O186      0.96716      .   S
    Zr86   O186      0.96716      .   S
    Zr15   O187      0.95667  1_455   S
    Zr59   O187      0.95667      .   S
    Zr1    O188      0.96715      .   S
    Zr78   O188      0.96715      .   S
    Zr1    O189      0.95660      .   S
    Zr99   O189      0.95660      .   S
    Zr78   O190      0.64275      .   S
    Zr31   O190      0.64275      .   S
    Zr86   O191      0.64265      .   S
    Zr35   O191      0.64265      .   S
    Zr30   O192      0.65388      .   S
    Zr76   O192      0.65388      .   S
    Zr34   O193      0.65359      .   S
    Zr84   O193      0.65359      .   S
    Zr35   O194      0.63388      .   S
    Zr87   O194      0.63388      .   S
    Zr31   O195      0.63401      .   S
    Zr79   O195      0.63401      .   S
    Zr87   O196      1.00001      .   S
    Zr14   O196      1.00001      .   S
    Zr79   O197      0.99992      .   S
    Zr0    O197      0.99992      .   S
    Zr14   O198      0.97104      .   S
    Zr76   O198      0.97104      .   S
    Zr14   O199      1.03770      .   S
    Zr58   O199      1.03770      .   S
    Zr0    O200      0.97100      .   S
    Zr84   O200      0.97100      .   S
    Zr0    O201      1.03777      .   S
    Zr98   O201      1.03777      .   S
    Zr59   O202      0.64704      .   S
    Zr21   O202      0.64704      .   S
    Zr99   O203      0.64715      .   S
    Zr41   O203      0.64715      .   S
    Zr58   O204      0.63209  1_455   S
    Zr21   O204      0.63209      .   S
    Zr98   O205      0.63207      .   S
    Zr41   O205      0.63207      .   S
    Zr33   O206      0.63208      .   S
    Zr82   O206      0.63208      .   S
    Zr33   O207      0.64708      .   S
    Zr83   O207      0.64708      .   S
    Zr29   O208      0.63212      .   S
    Zr74   O208      0.63212  1_655   S
    Zr29   O209      0.64702      .   S
    Zr75   O209      0.64702      .   S
    Zr74   O210      1.03797      .   S
    Zr10   O210      1.03797      .   S
    Zr82   O211      1.03793      .   S
    Zr4    O211      1.03793      .   S
    Zr100  O212      0.97089      .   S
    Zr4    O212      0.97089      .   S
    Zr100  O213      0.65375      .   S
    Zr42   O213      0.65375      .   S
    Zr60   O214      0.97082      .   S
    Zr10   O214      0.97082      .   S
    Zr60   O215      0.65371      .   S
    Zr22   O215      0.65371      .   S
    Zr75   O216      0.95646      .   S
    Zr11   O216      0.95646  1_655   S
    Zr83   O217      0.95647      .   S
    Zr5    O217      0.95647      .   S
    Zr4    O218      1.00006      .   S
    Zr63   O218      1.00006      .   S
    Zr4    O219      1.03000      .   S
    Zr64   O219      1.03000      .   S
    Zr10   O220      0.99993      .   S
    Zr103  O220      0.99993      .   S
    Zr10   O221      1.03001      .   S
    Zr88   O221      1.03001  1_455   S
    Zr63   O222      0.63401      .   S
    Zr23   O222      0.63401      .   S
    Zr103  O223      0.63402      .   S
    Zr43   O223      0.63402      .   S
    Zr23   O224      0.64263      .   S
    Zr62   O224      0.64263      .   S
    Zr43   O225      0.64261      .   S
    Zr102  O225      0.64261      .   S
    Zr22   O226      0.62480      .   S
    Zr61   O226      0.62480      .   S
    Zr42   O227      0.62483      .   S
    Zr101  O227      0.62483      .   S
    Zr62   O228      0.96722      .   S
    Zr5    O228      0.96722      .   S
    Zr102  O229      0.96716      .   S
    Zr11   O229      0.96716      .   S
    Zr57   O230      0.64613      .   S
    Zr20   O230      0.64613      .   S
    Zr97   O231      0.64613      .   S
    Zr40   O231      0.64613      .   S
    N232   O233      1.15638      .   S
    Zr17   O233      1.92115      .   S
    N232   O234      1.15108      .   S
    Zr16   O234      1.91129      .   S
    N232   O235      1.15735      .   S
    Zr18   O235      1.92453  1_545   S
    N232   O236      1.15351      .   S
    Zr19   O236      1.91700      .   S
    N237   O238      1.15693      .   S
    Zr45   O238      1.92162      .   S
    N237   O239      1.15740      .   S
    Zr46   O239      1.92434      .   S
    N237   O240      1.15175      .   S
    Zr47   O240      1.91523      .   S
    N237   O241      1.15202      .   S
    Zr44   O241      1.91219      .   S
    N242   O243      1.15684      .   S
    Zr25   O243      1.92183      .   S
    N242   O244      1.15339      .   S
    Zr27   O244      1.91684      .   S
    N242   O245      1.15740      .   S
    Zr26   O245      1.92455      .   S
    N242   O246      1.16041      .   S
    Zr24   O246      1.93992      .   S
    N247   O248      1.15678      .   S
    Zr41   O248      1.92169      .   S
    N247   O249      1.15338      .   S
    Zr43   O249      1.91685      .   S
    N247   O250      1.15741      .   S
    Zr42   O250      1.92457      .   S
    N247   O251      1.15097      .   S
    Zr40   O251      1.91125      .   S
    N252   O253      1.15730      .   S
    Zr21   O253      1.92216      .   S
    N252   O254      1.15183      .   S
    Zr23   O254      1.91538      .   S
    N252   O255      1.15181      .   S
    Zr20   O255      1.91214      .   S
    N252   O256      1.15766      .   S
    Zr22   O256      1.92498  1_565   S
    N257   O258      1.15643      .   S
    Zr29   O258      1.92121      .   S
    N257   O259      1.15349      .   S
    Zr31   O259      1.91697      .   S
    N257   O260      1.15102      .   S
    Zr28   O260      1.91122      .   S
    N257   O261      1.15723      .   S
    Zr30   O261      1.92421      .   S
    N262   O263      1.15643      .   S
    Zr33   O263      1.92119      .   S
    N262   O264      1.15132      .   S
    Zr32   O264      1.91096      .   S
    N262   O265      1.15734      .   S
    Zr34   O265      1.92452  1_565   S
    N262   O266      1.15351      .   S
    Zr35   O266      1.91699      .   S
    N267   O268      1.15749      .   S
    Zr38   O268      1.92481  1_545   S
    N267   O269      1.15662      .   S
    Zr37   O269      1.92149      .   S
    N267   O270      1.15355      .   S
    Zr39   O270      1.91710      .   S
    N267   O271      1.16054      .   S
    Zr36   O271      1.94019      .   S
