# CIF file generated by openbabel 2.4.90, see http://openbabel.sf.net
data_I
_chemical_name_common ''
_cell_length_a 16.341
_cell_length_b 18.078
_cell_length_c 18.066
_cell_angle_alpha 68.745
_cell_angle_beta 72.547
_cell_angle_gamma 107.43
_space_group_name_H-M_alt 'P 1'
_space_group_name_Hall 'P 1'
loop_
    _symmetry_equiv_pos_as_xyz
    x,y,z
loop_
    _atom_site_label
    _atom_site_type_symbol
    _atom_site_fract_x
    _atom_site_fract_y
    _atom_site_fract_z
    _atom_site_occupancy
    Lv0     Lv   0.56014   0.14497   0.30954   1.000
    Lv1     Lv   0.06035   0.69037   0.85477   1.000
    Lv2     Lv   0.62967   0.54501   0.30949   1.000
    Lv3     Lv   0.08565   0.14538   0.54519   1.000
    Lv4     Lv   0.91437   0.85470   0.45477   1.000
    Lv5     Lv   0.37033   0.45510   0.69047   1.000
    Lv6     Lv   0.41480   0.54519   0.14541   1.000
    Lv7     Lv   0.93965   0.30969   0.14511   1.000
    Lv8     Lv   0.87011   0.30979   0.54480   1.000
    Lv9     Lv   0.58522   0.45487   0.85443   1.000
    Lv10    Lv   0.12986   0.69028   0.45521   1.000
    Lv11    Lv   0.43985   0.85510   0.69044   1.000
