# CIF file generated by openbabel 2.4.90, see http://openbabel.sf.net
data_I
_chemical_name_common ''
_cell_length_a 16.341
_cell_length_b 18.078
_cell_length_c 18.066
_cell_angle_alpha 68.745
_cell_angle_beta 72.547
_cell_angle_gamma 107.43
_space_group_name_H-M_alt 'P 1'
_space_group_name_Hall 'P 1'
loop_
    _symmetry_equiv_pos_as_xyz
    x,y,z
loop_
    _atom_site_label
    _atom_site_type_symbol
    _atom_site_fract_x
    _atom_site_fract_y
    _atom_site_fract_z
    _atom_site_occupancy
    C0      C    0.35435   0.53328   0.20386   1.000
    C1      C    0.00691   0.10053   0.58804   1.000
    C2      C    0.14616   0.20357   0.53330   1.000
    C3      C    0.59335   0.58775   0.31187   1.000
    C4      C    0.67838   0.53317   0.26302   1.000
    C5      C    0.90561   0.31210   0.10004   1.000
    C6      C    0.94191   0.26326   0.20340   1.000
    N7      N    0.97056   0.38476   0.09397   1.000
    N8      N    0.99498   0.35383   0.16033   1.000
    N9      N    0.88520   0.23450   0.16781   1.000
    C10     C    0.99310   0.89954   0.41194   1.000
    C11     C    0.85385   0.79651   0.46660   1.000
    C12     C    0.40667   0.41238   0.68808   1.000
    C13     C    0.32161   0.46693   0.73696   1.000
    C14     C    0.09440   0.68796   0.89994   1.000
    C15     C    0.05809   0.73680   0.79600   1.000
    C16     C    0.90623   0.31209   0.58771   1.000
    C17     C    0.82145   0.26341   0.53287   1.000
    C18     C    0.59434   0.10005   0.31190   1.000
    C19     C    0.55776   0.20315   0.26311   1.000
    C20     C    0.49352   0.58799   0.10000   1.000
    C21     C    0.09373   0.68800   0.41230   1.000
    C22     C    0.17852   0.73666   0.46714   1.000
    C23     C    0.40565   0.90001   0.68808   1.000
    C24     C    0.44223   0.79692   0.73688   1.000
    C25     C    0.50649   0.41206   0.89941   1.000
    C26     C    0.64566   0.46678   0.79614   1.000
    N27     N    0.06508   0.09419   0.52113   1.000
    N28     N    0.15562   0.16037   0.48552   1.000
    N29     N    0.05446   0.16823   0.59797   1.000
    N30     N    0.58538   0.52100   0.38465   1.000
    N31     N    0.64062   0.48549   0.35370   1.000
    N32     N    0.65064   0.59765   0.23419   1.000
    N33     N    0.93493   0.90588   0.47885   1.000
    N34     N    0.84440   0.83971   0.51446   1.000
    N35     N    0.94555   0.83185   0.40201   1.000
    N36     N    0.41461   0.47911   0.61530   1.000
    N37     N    0.35934   0.51460   0.64626   1.000
    N38     N    0.34939   0.40247   0.76577   1.000
    N39     N    0.02942   0.61530   0.90605   1.000
    N40     N    0.00499   0.64623   0.83969   1.000
    N41     N    0.11484   0.76556   0.83216   1.000
    N42     N    0.91452   0.38488   0.52075   1.000
    N43     N    0.85944   0.35406   0.48505   1.000
    N44     N    0.84890   0.23452   0.59760   1.000
    N45     N    0.52926   0.09384   0.38466   1.000
    N46     N    0.50464   0.16004   0.35376   1.000
    N47     N    0.61468   0.16775   0.23427   1.000
    N48     N    0.43526   0.52118   0.09428   1.000
    N49     N    0.34479   0.48560   0.16050   1.000
    N50     N    0.44606   0.59787   0.16840   1.000
    N51     N    0.08544   0.61520   0.47925   1.000
    N52     N    0.14053   0.64601   0.51495   1.000
    N53     N    0.15108   0.76556   0.40241   1.000
    N54     N    0.47073   0.90622   0.61533   1.000
    N55     N    0.49535   0.84003   0.64623   1.000
    N56     N    0.38531   0.83232   0.76570   1.000
    N57     N    0.56475   0.47888   0.90570   1.000
    N58     N    0.65522   0.51447   0.83940   1.000
    N59     N    0.55395   0.40218   0.83150   1.000
loop_
    _geom_bond_atom_site_label_1
    _geom_bond_atom_site_label_2
    _geom_bond_distance
    _geom_bond_site_symmetry_2
    _ccdc_geom_bond_type
    N7     C5        1.36175      .   S
    N7     N8        1.35790      .   S
    N48    C20       1.35515      .   S
    N48    N49       1.35719      .   S
    C20    N50       1.35226      .   S
    C5     N9        1.34452      .   S
    N8     C6        1.36359      .   S
    N49    C0        1.36492      .   S
    N9     C6        1.36152      .   S
    N50    C0        1.36134      .   S
    N32    C4        1.36154      .   S
    N32    C3        1.34433      .   S
    N47    C19       1.36151      .   S
    N47    C18       1.34443      .   S
    C4     N31       1.36334      .   S
    C19    N46       1.36363      .   S
    C3     N30       1.36184      .   S
    C18    N45       1.36181      .   S
    N31    N30       1.35805      .   S
    N46    N45       1.35797      .   S
    N35    C10       1.34420      .   S
    N35    C11       1.36092      .   S
    N53    C21       1.34421      .   S
    N53    C22       1.36147      .   S
    C10    N33       1.36171      .   S
    C21    N51       1.36167      .   S
    C11    N34       1.36497      .   S
    C22    N52       1.36366      .   S
    N33    N34       1.35812      .   S
    N51    N52       1.35830      .   S
    N43    N42       1.35831      .   S
    N43    C17       1.36367      .   S
    N28    N27       1.35816      .   S
    N28    C2        1.36373      .   S
    N42    C16       1.36163      .   S
    N27    C1        1.36176      .   S
    C17    N44       1.36151      .   S
    C2     N29       1.36147      .   S
    C16    N44       1.34425      .   S
    C1     N29       1.34418      .   S
    N36    N37       1.35805      .   S
    N36    C12       1.36193      .   S
    N54    N55       1.35799      .   S
    N54    C23       1.36169      .   S
    N55    C24       1.36363      .   S
    N37    C13       1.36368      .   S
    C23    N56       1.34427      .   S
    C12    N38       1.34435      .   S
    C24    N56       1.36139      .   S
    C13    N38       1.36150      .   S
    C15    N41       1.37033      .   S
    C15    N40       1.36305      .   S
    C26    N59       1.36167      .   S
    C26    N58       1.36366      .   S
    N59    C25       1.34536      .   S
    N41    C14       1.34444      .   S
    N58    N57       1.35774      .   S
    N40    N39       1.35797      .   S
    C25    N57       1.36157      .   S
    C14    N39       1.36168      .   S
