# CIF file generated by openbabel 2.4.90, see http://openbabel.sf.net
data_I
_chemical_name_common ''
_cell_length_a 16.341
_cell_length_b 18.078
_cell_length_c 18.066
_cell_angle_alpha 68.745
_cell_angle_beta 72.547
_cell_angle_gamma 107.43
_space_group_name_H-M_alt 'P 1'
_space_group_name_Hall 'P 1'
loop_
    _symmetry_equiv_pos_as_xyz
    x,y,z
loop_
    _atom_site_label
    _atom_site_type_symbol
    _atom_site_fract_x
    _atom_site_fract_y
    _atom_site_fract_z
    _atom_site_occupancy
    Fe0     Fe   0.50000   0.50005   0.49998   1.000
    Fe1     Fe   1.00000   0.50003   0.00000   1.000
    Fe2     Fe   1.00000   0.50004   0.49999   1.000
    Fe3     Fe   0.50000   0.00003   0.49999   1.000
    Fe4     Fe   0.50001   0.50004   0.99999   1.000
    Fe5     Fe   0.00001   0.00003   0.49999   1.000
    Ts6     Ts   0.46273   0.47166   0.49996   1.000
    Ts7     Ts   0.52846   0.50703   0.46154   1.000
    Ts8     Ts   0.49698   0.53472   0.47351   1.000
    Ts9     Ts   0.53727   0.52844   0.50001   1.000
    Ts10    Ts   0.47154   0.49307   0.53842   1.000
    Ts11    Ts   0.50302   0.46538   0.52645   1.000
    Ts12    Ts   0.99018   0.46161   0.03132   1.000
    Ts13    Ts   0.97061   0.47359   0.99171   1.000
    Ts14    Ts   0.96272   0.50009   0.02835   1.000
    Ts15    Ts   0.03727   0.49997   0.97165   1.000
    Ts16    Ts   0.00980   0.53846   0.96868   1.000
    Ts17    Ts   0.02937   0.52647   0.00829   1.000
    Ts18    Ts   0.97151   0.46165   0.50691   1.000
    Ts19    Ts   0.00284   0.47352   0.53476   1.000
    Ts20    Ts   0.03731   0.49995   0.47171   1.000
    Ts21    Ts   0.02848   0.53843   0.49308   1.000
    Ts22    Ts   0.99715   0.52657   0.46522   1.000
    Ts23    Ts   0.96268   0.50013   0.52826   1.000
    Ts24    Ts   0.53725   0.02843   0.50004   1.000
    Ts25    Ts   0.50975   0.03130   0.46155   1.000
    Ts26    Ts   0.52945   0.99181   0.47349   1.000
    Ts27    Ts   0.46274   0.97163   0.49995   1.000
    Ts28    Ts   0.49024   0.96876   0.53844   1.000
    Ts29    Ts   0.47054   0.00826   0.52649   1.000
    Ts30    Ts   0.50887   0.47158   0.02839   1.000
    Ts31    Ts   0.47843   0.50709   0.03142   1.000
    Ts32    Ts   0.53743   0.53464   0.99203   1.000
    Ts33    Ts   0.49114   0.52851   0.97158   1.000
    Ts34    Ts   0.52159   0.49299   0.96856   1.000
    Ts35    Ts   0.46258   0.46545   0.00794   1.000
    Ts36    Ts   0.99110   0.02847   0.47158   1.000
    Ts37    Ts   0.02170   0.03142   0.50704   1.000
    Ts38    Ts   0.96264   0.99213   0.53466   1.000
    Ts39    Ts   0.97831   0.96865   0.49294   1.000
    Ts40    Ts   0.03737   0.00794   0.46532   1.000
    Ts41    Ts   0.00892   0.97160   0.52840   1.000
loop_
    _geom_bond_atom_site_label_1
    _geom_bond_atom_site_label_2
    _geom_bond_distance
    _geom_bond_site_symmetry_2
    _ccdc_geom_bond_type
    Fe0    Ts6       0.66883      .   S
    Fe0    Ts7       0.64968      .   S
    Fe0    Ts8       0.66278      .   S
    Fe0    Ts9       0.66890      .   S
    Fe0    Ts10      0.64968      .   S
    Fe0    Ts11      0.66285      .   S
    Fe1    Ts12      0.64985      .   S
    Fe1    Ts13      0.66256  1_554   S
    Fe1    Ts14      0.66862      .   S
    Fe1    Ts15      0.66856  1_654   S
    Fe1    Ts16      0.64981  1_654   S
    Fe1    Ts17      0.66251  1_655   S
    Fe2    Ts18      0.65009      .   S
    Fe2    Ts19      0.66272  1_655   S
    Fe2    Ts20      0.66880  1_655   S
    Fe2    Ts21      0.65004  1_655   S
    Fe2    Ts22      0.66265      .   S
    Fe2    Ts23      0.66860      .   S
    Fe3    Ts24      0.66905      .   S
    Fe3    Ts25      0.64984      .   S
    Fe3    Ts26      0.66267  1_545   S
    Fe3    Ts27      0.66900  1_545   S
    Fe3    Ts28      0.64987  1_545   S
    Fe3    Ts29      0.66277      .   S
    Fe4    Ts30      0.66851  1_556   S
    Fe4    Ts31      0.64981  1_556   S
    Fe4    Ts32      0.66230      .   S
    Fe4    Ts33      0.66854      .   S
    Fe4    Ts34      0.64990      .   S
    Fe4    Ts35      0.66251  1_556   S
    Fe5    Ts36      0.66873  1_455   S
    Fe5    Ts37      0.65021      .   S
    Fe5    Ts38      0.66258  1_445   S
    Fe5    Ts39      0.65014  1_445   S
    Fe5    Ts40      0.66251      .   S
    Fe5    Ts41      0.66871  1_545   S
