# CIF file generated by openbabel 2.4.90, see http://openbabel.sf.net
data_I
_chemical_name_common ''
_cell_length_a 16.341
_cell_length_b 18.078
_cell_length_c 18.066
_cell_angle_alpha 68.745
_cell_angle_beta 72.547
_cell_angle_gamma 107.43
_space_group_name_H-M_alt 'P 1'
_space_group_name_Hall 'P 1'
loop_
    _symmetry_equiv_pos_as_xyz
    x,y,z
loop_
    _atom_site_label
    _atom_site_type_symbol
    _atom_site_fract_x
    _atom_site_fract_y
    _atom_site_fract_z
    _atom_site_occupancy
    N0      N    0.56014   0.14497   0.30954   1.000
    N1      N    0.06035   0.69037   0.85477   1.000
    N2      N    0.62967   0.54501   0.30949   1.000
    N3      N    0.08565   0.14538   0.54519   1.000
    N4      N    0.91437   0.85470   0.45477   1.000
    N5      N    0.37033   0.45510   0.69047   1.000
    N6      N    0.41480   0.54519   0.14541   1.000
    N7      N    0.93965   0.30969   0.14511   1.000
    N8      N    0.87011   0.30979   0.54480   1.000
    N9      N    0.58522   0.45487   0.85443   1.000
    N10     N    0.12986   0.69028   0.45521   1.000
    N11     N    0.43985   0.85510   0.69044   1.000
    Zr12    Zr   0.50001   0.50005   0.99999   1.000
    O13     O    0.48684   0.54857   0.95339   1.000
    O14     O    0.51317   0.45152   0.04659   1.000
    Zr15    Zr   1.00000   0.50003   0.00000   1.000
    O16     O    0.94014   0.50189   0.04654   1.000
    O17     O    0.05984   0.49817   0.95346   1.000
    Zr18    Zr   1.00000   0.50004   0.49999   1.000
    O19     O    0.06167   0.50174   0.45172   1.000
    O20     O    0.93833   0.49833   0.54825   1.000
    Zr21    Zr   0.50000   0.50005   0.49998   1.000
    O22     O    0.56158   0.54846   0.49820   1.000
    O23     O    0.43842   0.45164   0.50164   1.000
    Zr24    Zr   0.50000   0.00003   0.49999   1.000
    O25     O    0.44017   0.95341   0.49818   1.000
    O26     O    0.55982   0.04665   0.50181   1.000
    Zr27    Zr   0.00001   0.00003   0.49999   1.000
    O28     O    0.98675   0.04667   0.45156   1.000
    O29     O    0.01326   0.95339   0.54842   1.000
    O30     O    0.96460   0.44544   0.01617   1.000
    O31     O    0.03539   0.55462   0.98377   1.000
    O32     O    0.53543   0.01629   0.44533   1.000
    O33     O    0.46456   0.98377   0.55466   1.000
    O34     O    0.51915   0.53837   0.44534   1.000
    O35     O    0.48085   0.46174   0.55463   1.000
    O36     O    0.98127   0.01658   0.53835   1.000
    O37     O    0.01874   0.98349   0.46163   1.000
    O38     O    0.51886   0.53835   0.01650   1.000
    O39     O    0.48115   0.46173   0.98346   1.000
    O40     O    0.01930   0.55469   0.46164   1.000
    O41     O    0.98065   0.44539   0.53835   1.000
loop_
    _geom_bond_atom_site_label_1
    _geom_bond_atom_site_label_2
    _geom_bond_distance
    _geom_bond_site_symmetry_2
    _ccdc_geom_bond_type
    Zr12   O13       1.10043      .   S
    N11    O13       6.28599      .   S
    Zr12   O14       1.10038  1_556   S
    N0     O14       6.28609      .   S
    Zr15   O16       1.10066      .   S
    N2     O16       6.28580      .   S
    Zr15   O17       1.10061  1_654   S
    N5     O17       6.28580      .   S
    Zr18   O19       1.10076  1_655   S
    N6     O19       6.28635      .   S
    Zr18   O20       1.10057      .   S
    N9     O20       6.28475      .   S
    Zr21   O22       1.10091      .   S
    N4     O22       6.28623      .   S
    Zr21   O23       1.10208      .   S
    N3     O23       6.28533      .   S
    Zr24   O25       1.10120  1_545   S
    N10    O25       6.28737      .   S
    Zr24   O26       1.10125      .   S
    N8     O26       6.28754      .   S
    Zr27   O28       1.10069  1_455   S
    N7     O28       6.28601      .   S
    Zr27   O29       1.10067  1_545   S
    N1     O29       6.28475      .   S
    Zr15   O30       0.86114      .   S
    N7     O30       2.51021      .   S
    Zr15   O31       0.86077  1_654   S
    N1     O31       2.51069      .   S
    Zr24   O32       0.86105      .   S
    N0     O32       2.50963      .   S
    Zr24   O33       0.86114  1_545   S
    N11    O33       2.50957      .   S
    Zr21   O34       0.86102      .   S
    N2     O34       2.50940      .   S
    Zr21   O35       0.86104      .   S
    N5     O35       2.50942      .   S
    Zr27   O36       0.86104  1_455   S
    N3     O36       2.51038  1_455   S
    Zr27   O37       0.86101  1_545   S
    N4     O37       2.51035  1_655   S
    N6     O38       2.50799      .   S
    Zr12   O38       0.86044  1_556   S
    Zr12   O39       0.86084      .   S
    N9     O39       2.50984      .   S
    Zr18   O40       0.86111  1_655   S
    N10    O40       2.51016      .   S
    Zr18   O41       0.86100      .   S
    N8     O41       2.50988      .   S
