# CIF file generated by openbabel 2.4.90, see http://openbabel.sf.net
data_I
_chemical_name_common ''
_cell_length_a 16.341
_cell_length_b 18.078
_cell_length_c 18.066
_cell_angle_alpha 68.745
_cell_angle_beta 72.547
_cell_angle_gamma 107.43
_space_group_name_H-M_alt 'P 1'
_space_group_name_Hall 'P 1'
loop_
    _symmetry_equiv_pos_as_xyz
    x,y,z
loop_
    _atom_site_label
    _atom_site_type_symbol
    _atom_site_fract_x
    _atom_site_fract_y
    _atom_site_fract_z
    _atom_site_occupancy
    C0      C    0.00001   0.00003   0.49999   1.000
    C1      C    0.50000   0.50005   0.49998   1.000
    C2      C    1.00000   0.50003   0.00000   1.000
    C3      C    1.00000   0.50004   0.49999   1.000
    C4      C    0.50000   0.00003   0.49999   1.000
    C5      C    0.50001   0.50004   0.99999   1.000
    C6      C    0.85730   0.07248   0.73300   1.000
    C7      C    0.68831   0.94564   0.81295   1.000
    C8      C    0.65243   0.84080   0.75267   1.000
    C9      C    0.78410   0.86593   0.61750   1.000
    C10     C    0.33856   0.26105   0.43381   1.000
    C11     C    0.47400   0.37911   0.42298   1.000
    C12     C    0.28699   0.44022   0.57476   1.000
    C13     C    0.14390   0.32098   0.59000   1.000
    C14     C    0.58728   0.73266   0.19596   1.000
    C15     C    0.49834   0.81288   0.24395   1.000
    C16     C    0.40370   0.75307   0.40880   1.000
    C17     C    0.40134   0.61793   0.51781   1.000
    C18     C    0.77287   0.43482   0.30450   1.000
    C19     C    0.89802   0.42410   0.19739   1.000
    C20     C    0.86094   0.57431   0.98518   1.000
    C21     C    0.73728   0.59420   0.08418   1.000
    C22     C    0.78270   0.19634   0.07148   1.000
    C23     C    0.74162   0.24431   0.94336   1.000
    C24     C    0.81247   0.40903   0.83804   1.000
    C25     C    0.91953   0.51789   0.86405   1.000
    C26     C    0.07817   0.30422   0.26001   1.000
    C27     C    0.09584   0.19704   0.37821   1.000
    C28     C    0.84582   0.98616   0.44093   1.000
    C29     C    0.82140   0.08517   0.32181   1.000
    C30     C    0.14272   0.92760   0.26679   1.000
    C31     C    0.31172   0.05442   0.18705   1.000
    C32     C    0.34760   0.15925   0.24735   1.000
    C33     C    0.21591   0.13412   0.38251   1.000
    C34     C    0.66147   0.73906   0.56613   1.000
    C35     C    0.52601   0.62104   0.57694   1.000
    C36     C    0.71300   0.55985   0.42524   1.000
    C37     C    0.85610   0.67907   0.40501   1.000
    C38     C    0.41277   0.26753   0.80400   1.000
    C39     C    0.50165   0.18725   0.75607   1.000
    C40     C    0.59622   0.24696   0.59120   1.000
    C41     C    0.59861   0.38209   0.48218   1.000
    C42     C    0.22709   0.56524   0.69548   1.000
    C43     C    0.10194   0.57596   0.80263   1.000
    C44     C    0.13904   0.42574   0.01482   1.000
    C45     C    0.26272   0.40588   0.91581   1.000
    C46     C    0.21736   0.80371   0.92848   1.000
    C47     C    0.25837   0.75573   0.05665   1.000
    C48     C    0.18744   0.59101   0.16202   1.000
    C49     C    0.08037   0.48216   0.13600   1.000
    C50     C    0.92184   0.69584   0.73996   1.000
    C51     C    0.90419   0.80303   0.62176   1.000
    C52     C    0.15419   0.01391   0.55907   1.000
    C53     C    0.17860   0.91489   0.67819   1.000
    C54     C    0.91186   0.19599   0.73281   1.000
    C55     C    0.00000   0.24356   0.81332   1.000
    C56     C    0.09534   0.40825   0.75376   1.000
    C57     C    0.09800   0.51743   0.61850   1.000
    C58     C    0.72741   0.30474   0.43377   1.000
    C59     C    0.60227   0.19746   0.42334   1.000
    C60     C    0.63866   0.98550   0.57493   1.000
    C61     C    0.76217   0.08465   0.59470   1.000
    C62     C    0.71765   0.07189   0.19592   1.000
    C63     C    0.75916   0.94413   0.24378   1.000
    C64     C    0.68832   0.83878   0.40860   1.000
    C65     C    0.58090   0.86446   0.51767   1.000
    C66     C    0.42115   0.25936   0.30410   1.000
    C67     C    0.40377   0.37782   0.19695   1.000
    C68     C    0.65420   0.44096   0.98597   1.000
    C69     C    0.67851   0.32173   0.08490   1.000
    C70     C    0.64344   0.73303   0.07221   1.000
    C71     C    0.81222   0.81266   0.94494   1.000
    C72     C    0.84770   0.75228   0.84008   1.000
    C73     C    0.71580   0.61719   0.86557   1.000
    C74     C    0.16220   0.43405   0.26098   1.000
    C75     C    0.02644   0.42314   0.37898   1.000
    C76     C    0.21284   0.57418   0.44100   1.000
    C77     C    0.35618   0.59441   0.32189   1.000
    C78     C    0.08811   0.80409   0.26715   1.000
    C79     C    0.99935   0.75648   0.18665   1.000
    C80     C    0.90467   0.59180   0.24623   1.000
    C81     C    0.90201   0.48265   0.38151   1.000
    C82     C    0.27254   0.69531   0.56627   1.000
    C83     C    0.39770   0.80260   0.57667   1.000
    C84     C    0.36135   0.01457   0.42504   1.000
    C85     C    0.23782   0.91541   0.40528   1.000
    C86     C    0.28232   0.92813   0.80408   1.000
    C87     C    0.24080   0.05589   0.75624   1.000
    C88     C    0.31167   0.16129   0.59144   1.000
    C89     C    0.41910   0.13564   0.48234   1.000
    C90     C    0.57886   0.74073   0.69589   1.000
    C91     C    0.59625   0.62228   0.80304   1.000
    C92     C    0.34579   0.55910   0.01402   1.000
    C93     C    0.32149   0.67832   0.91501   1.000
    C94     C    0.35660   0.26701   0.92780   1.000
    C95     C    0.18780   0.18739   0.05506   1.000
    C96     C    0.15229   0.24781   0.15988   1.000
    C97     C    0.28417   0.38291   0.13439   1.000
    C98     C    0.83781   0.56590   0.73900   1.000
    C99     C    0.97355   0.57679   0.62110   1.000
    C100    C    0.78716   0.42601   0.55889   1.000
    C101    C    0.64382   0.40574   0.67803   1.000
    C102    C    0.00691   0.10053   0.58804   1.000
    C103    C    0.14616   0.20357   0.53330   1.000
    C104    C    0.90746   0.03334   0.63712   1.000
    C105    C    0.83729   0.02405   0.71153   1.000
    C106    C    0.74436   0.95437   0.75464   1.000
    C107    C    0.72409   0.89625   0.72121   1.000
    C108    C    0.79688   0.90934   0.64622   1.000
    C109    C    0.22815   0.27847   0.51779   1.000
    C110    C    0.32392   0.29908   0.46643   1.000
    C111    C    0.40012   0.36531   0.46003   1.000
    C112    C    0.29589   0.39871   0.54507   1.000
    C113    C    0.21606   0.33222   0.55593   1.000
    C114    C    0.59335   0.58775   0.31187   1.000
    C115    C    0.67838   0.53317   0.26302   1.000
    C116    C    0.54282   0.63692   0.33053   1.000
    C117    C    0.54633   0.71126   0.26598   1.000
    C118    C    0.49662   0.75459   0.29306   1.000
    C119    C    0.44378   0.72144   0.38448   1.000
    C120    C    0.44223   0.64647   0.44579   1.000
    C121    C    0.74527   0.51783   0.20351   1.000
    C122    C    0.79050   0.46704   0.23406   1.000
    C123    C    0.86062   0.46073   0.17430   1.000
    C124    C    0.84038   0.54489   0.05622   1.000
    C125    C    0.77097   0.55557   0.11184   1.000
    C126    C    0.90561   0.31210   0.10004   1.000
    C127    C    0.94191   0.26326   0.20340   1.000
    C128    C    0.87355   0.33074   0.03233   1.000
    C129    C    0.81212   0.26627   0.02271   1.000
    C130    C    0.78936   0.29335   0.95238   1.000
    C131    C    0.82824   0.38468   0.89000   1.000
    C132    C    0.88832   0.44593   0.90752   1.000
    C133    C    0.94921   0.20381   0.27834   1.000
    C134    C    0.02514   0.23403   0.29840   1.000
    C135    C    0.03529   0.17425   0.36471   1.000
    C136    C    0.89653   0.05690   0.39907   1.000
    C137    C    0.88292   0.11254   0.33260   1.000
    C138    C    0.99310   0.89954   0.41194   1.000
    C139    C    0.85385   0.79651   0.46660   1.000
    C140    C    0.09255   0.96674   0.36286   1.000
    C141    C    0.16272   0.97602   0.28845   1.000
    C142    C    0.25566   0.04570   0.24536   1.000
    C143    C    0.27593   0.10380   0.27880   1.000
    C144    C    0.20313   0.09072   0.35378   1.000
    C145    C    0.77186   0.72161   0.48219   1.000
    C146    C    0.67610   0.70102   0.53353   1.000
    C147    C    0.59989   0.63482   0.53992   1.000
    C148    C    0.70410   0.60137   0.45492   1.000
    C149    C    0.78393   0.66784   0.44407   1.000
    C150    C    0.40667   0.41238   0.68808   1.000
    C151    C    0.32161   0.46693   0.73696   1.000
    C152    C    0.45721   0.36322   0.66943   1.000
    C153    C    0.45370   0.28888   0.73399   1.000
    C154    C    0.50337   0.24552   0.70694   1.000
    C155    C    0.55618   0.27863   0.61553   1.000
    C156    C    0.55773   0.35358   0.55419   1.000
    C157    C    0.25471   0.48224   0.79648   1.000
    C158    C    0.20946   0.53302   0.76595   1.000
    C159    C    0.13935   0.53933   0.82571   1.000
    C160    C    0.15961   0.45517   0.94378   1.000
    C161    C    0.22901   0.44450   0.88810   1.000
    C162    C    0.09440   0.68796   0.89994   1.000
    C163    C    0.05809   0.73680   0.79600   1.000
    C164    C    0.12646   0.66931   0.96766   1.000
    C165    C    0.18791   0.73377   0.97727   1.000
    C166    C    0.21062   0.70669   0.04763   1.000
    C167    C    0.17171   0.61537   0.10604   1.000
    C168    C    0.11162   0.55412   0.09250   1.000
    C169    C    0.05080   0.79625   0.72165   1.000
    C170    C    0.97488   0.76604   0.70154   1.000
    C171    C    0.96473   0.82582   0.63526   1.000
    C172    C    0.10348   0.94317   0.60090   1.000
    C173    C    0.11709   0.88752   0.66739   1.000
    C174    C    0.90623   0.31209   0.58771   1.000
    C175    C    0.82145   0.26341   0.53287   1.000
    C176    C    0.95659   0.33056   0.63700   1.000
    C177    C    0.95290   0.26591   0.71149   1.000
    C178    C    0.00000   0.29276   0.75499   1.000
    C179    C    0.05538   0.38406   0.72196   1.000
    C180    C    0.05708   0.44549   0.64694   1.000
    C181    C    0.75462   0.20390   0.51754   1.000
    C182    C    0.70963   0.23431   0.46639   1.000
    C183    C    0.63951   0.17444   0.46022   1.000
    C184    C    0.65934   0.05652   0.54516   1.000
    C185    C    0.72868   0.11223   0.55576   1.000
    C186    C    0.59434   0.10005   0.31190   1.000
    C187    C    0.55776   0.20315   0.26311   1.000
    C188    C    0.62664   0.03255   0.33049   1.000
    C189    C    0.68827   0.02313   0.26589   1.000
    C190    C    0.71124   0.95299   0.29291   1.000
    C191    C    0.67239   0.89460   0.38430   1.000
    C192    C    0.61210   0.90793   0.44567   1.000
    C193    C    0.55044   0.27803   0.20360   1.000
    C194    C    0.47437   0.29798   0.23390   1.000
    C195    C    0.46437   0.36437   0.17414   1.000
    C196    C    0.60338   0.39898   0.05674   1.000
    C197    C    0.61690   0.33245   0.11230   1.000
    C198    C    0.49352   0.58799   0.10000   1.000
    C199    C    0.35435   0.53328   0.20386   1.000
    C200    C    0.59292   0.63700   0.03320   1.000
    C201    C    0.66324   0.71136   0.02373   1.000
    C202    C    0.75607   0.75437   0.95382   1.000
    C203    C    0.77611   0.72090   0.89569   1.000
    C204    C    0.70320   0.64595   0.90898   1.000
    C205    C    0.27229   0.51768   0.27885   1.000
    C206    C    0.17661   0.46648   0.29920   1.000
    C207    C    0.10025   0.46003   0.36539   1.000
    C208    C    0.20414   0.54467   0.39930   1.000
    C209    C    0.28411   0.55553   0.33280   1.000
    C210    C    0.09373   0.68800   0.41230   1.000
    C211    C    0.17852   0.73666   0.46714   1.000
    C212    C    0.04339   0.66954   0.36292   1.000
    C213    C    0.04709   0.73417   0.28849   1.000
    C214    C    0.99749   0.70730   0.24499   1.000
    C215    C    0.94463   0.61599   0.27802   1.000
    C216    C    0.94292   0.55458   0.35306   1.000
    C217    C    0.24536   0.79616   0.48248   1.000
    C218    C    0.29034   0.76575   0.53363   1.000
    C219    C    0.36046   0.82562   0.53979   1.000
    C220    C    0.34065   0.94355   0.45483   1.000
    C221    C    0.27131   0.88783   0.44423   1.000
    C222    C    0.40565   0.90001   0.68808   1.000
    C223    C    0.44223   0.79692   0.73688   1.000
    C224    C    0.37334   0.96751   0.66950   1.000
    C225    C    0.31171   0.97692   0.73411   1.000
    C226    C    0.28873   0.04706   0.70710   1.000
    C227    C    0.32761   0.10547   0.61572   1.000
    C228    C    0.38789   0.09215   0.55434   1.000
    C229    C    0.44956   0.72204   0.79634   1.000
    C230    C    0.52564   0.70210   0.76609   1.000
    C231    C    0.53565   0.63572   0.82585   1.000
    C232    C    0.39661   0.60108   0.94320   1.000
    C233    C    0.38309   0.66761   0.88763   1.000
    C234    C    0.50649   0.41206   0.89941   1.000
    C235    C    0.64566   0.46678   0.79614   1.000
    C236    C    0.40708   0.36307   0.96680   1.000
    C237    C    0.33678   0.28869   0.97628   1.000
    C238    C    0.24395   0.24569   0.04618   1.000
    C239    C    0.22388   0.27919   0.10427   1.000
    C240    C    0.29679   0.35414   0.09099   1.000
    C241    C    0.72772   0.48236   0.72115   1.000
    C242    C    0.82339   0.53351   0.70083   1.000
    C243    C    0.89975   0.53995   0.63465   1.000
    C244    C    0.79587   0.45546   0.60063   1.000
    C245    C    0.71589   0.44457   0.66708   1.000
    C246    C    0.06508   0.09419   0.52113   1.000
    C247    C    0.15562   0.16037   0.48552   1.000
    C248    C    0.05446   0.16823   0.59797   1.000
    C249    C    0.88790   0.97632   0.60400   1.000
    C250    C    0.38820   0.41489   0.49991   1.000
    C251    C    0.58538   0.52100   0.38465   1.000
    C252    C    0.64062   0.48549   0.35370   1.000
    C253    C    0.65064   0.59765   0.23419   1.000
    C254    C    0.49094   0.60405   0.42056   1.000
    C255    C    0.88817   0.50021   0.08506   1.000
    C256    C    0.97056   0.38476   0.09397   1.000
    C257    C    0.99498   0.35383   0.16033   1.000
    C258    C    0.88520   0.23450   0.16781   1.000
    C259    C    0.91185   0.42070   0.97514   1.000
    C260    C    0.97328   0.08534   0.41477   1.000
    C261    C    0.93493   0.90588   0.47885   1.000
    C262    C    0.84440   0.83971   0.51446   1.000
    C263    C    0.94555   0.83185   0.40201   1.000
    C264    C    0.11211   0.02375   0.39599   1.000
    C265    C    0.61181   0.58522   0.50006   1.000
    C266    C    0.41461   0.47911   0.61530   1.000
    C267    C    0.35934   0.51460   0.64626   1.000
    C268    C    0.34939   0.40247   0.76577   1.000
    C269    C    0.50907   0.39605   0.57940   1.000
    C270    C    0.11181   0.49985   0.91495   1.000
    C271    C    0.02942   0.61530   0.90605   1.000
    C272    C    0.00499   0.64623   0.83969   1.000
    C273    C    0.11484   0.76556   0.83216   1.000
    C274    C    0.08813   0.57935   0.02487   1.000
    C275    C    0.02674   0.91473   0.58521   1.000
    C276    C    0.91452   0.38488   0.52075   1.000
    C277    C    0.85944   0.35406   0.48505   1.000
    C278    C    0.84890   0.23452   0.59760   1.000
    C279    C    0.00853   0.42047   0.60431   1.000
    C280    C    0.61176   0.08524   0.50013   1.000
    C281    C    0.52926   0.09384   0.38466   1.000
    C282    C    0.50464   0.16004   0.35376   1.000
    C283    C    0.61468   0.16775   0.23427   1.000
    C284    C    0.58837   0.97537   0.42050   1.000
    C285    C    0.52659   0.41464   0.08520   1.000
    C286    C    0.43526   0.52118   0.09428   1.000
    C287    C    0.34479   0.48560   0.16050   1.000
    C288    C    0.44606   0.59787   0.16840   1.000
    C289    C    0.61227   0.60383   0.97610   1.000
    C290    C    0.11195   0.49975   0.41514   1.000
    C291    C    0.08544   0.61520   0.47925   1.000
    C292    C    0.14053   0.64601   0.51495   1.000
    C293    C    0.15108   0.76556   0.40241   1.000
    C294    C    0.99146   0.57962   0.39569   1.000
    C295    C    0.38823   0.91483   0.49986   1.000
    C296    C    0.47073   0.90622   0.61533   1.000
    C297    C    0.49535   0.84003   0.64623   1.000
    C298    C    0.38531   0.83232   0.76570   1.000
    C299    C    0.41163   0.02470   0.57949   1.000
    C300    C    0.47341   0.58545   0.91477   1.000
    C301    C    0.56475   0.47888   0.90570   1.000
    C302    C    0.65522   0.51447   0.83940   1.000
    C303    C    0.55395   0.40218   0.83150   1.000
    C304    C    0.38773   0.39625   0.02383   1.000
    C305    C    0.88806   0.50031   0.58480   1.000
    O306    O    0.37120   0.58009   0.97861   1.000
    O307    O    0.14933   0.44045   0.97930   1.000
    O308    O    0.84283   0.29851   0.02752   1.000
    O309    O    0.79741   0.23131   0.04709   1.000
    O310    O    0.80074   0.27981   0.98754   1.000
    O311    O    0.62808   0.67418   0.02846   1.000
    O312    O    0.65334   0.72220   0.04797   1.000
    O313    O    0.70965   0.73287   0.98877   1.000
    O314    O    0.34226   0.37519   0.05741   1.000
    O315    O    0.39741   0.37966   0.99531   1.000
    O316    O    0.44387   0.44815   0.01191   1.000
    O317    O    0.09988   0.56674   0.05869   1.000
    O318    O    0.10730   0.62433   0.99626   1.000
    O319    O    0.04406   0.53969   0.01244   1.000
    O320    O    0.88958   0.32142   0.06618   1.000
    O321    O    0.89270   0.37572   0.00373   1.000
    O322    O    0.54322   0.61250   0.06660   1.000
    O323    O    0.60260   0.62042   0.00465   1.000
    O324    O    0.21587   0.21654   0.05062   1.000
    O325    O    0.23391   0.26244   0.07522   1.000
    O326    O    0.29036   0.26719   0.01123   1.000
    O327    O    0.23450   0.73121   0.05214   1.000
    O328    O    0.19116   0.66103   0.07683   1.000
    O329    O    0.19927   0.72023   0.01245   1.000
    O330    O    0.86427   0.52255   0.07064   1.000
    O331    O    0.80567   0.55023   0.08403   1.000
    O332    O    0.85066   0.55960   0.02070   1.000
    O333    O    0.56499   0.40681   0.07097   1.000
    O334    O    0.61014   0.36572   0.08452   1.000
    O335    O    0.62879   0.41997   0.02135   1.000
    O336    O    0.75412   0.57488   0.09801   1.000
    O337    O    0.64770   0.32709   0.09860   1.000
    O338    O    0.87439   0.48047   0.12968   1.000
    O339    O    0.94408   0.50012   0.04253   1.000
    O340    O    0.49548   0.38950   0.12967   1.000
    O341    O    0.51330   0.45734   0.04259   1.000
    O342    O    0.26034   0.31666   0.09763   1.000
    O343    O    0.29048   0.36852   0.11269   1.000
    O344    O    0.14166   0.58474   0.09927   1.000
    O345    O    0.09600   0.51814   0.11425   1.000
    O346    O    0.93808   0.34843   0.09701   1.000
    O347    O    0.98277   0.36930   0.12715   1.000
    O348    O    0.98528   0.44239   0.04698   1.000
    O349    O    0.46439   0.55459   0.09714   1.000
    O350    O    0.39003   0.50339   0.12739   1.000
    O351    O    0.46763   0.51061   0.04713   1.000
    O352    O    0.46979   0.59293   0.13420   1.000
    O353    O    0.89541   0.27330   0.13392   1.000
    O354    O    0.18809   0.26350   0.13207   1.000
    O355    O    0.17957   0.60319   0.13403   1.000
    O356    O    0.75812   0.53670   0.15767   1.000
    O357    O    0.58367   0.30524   0.15795   1.000
    O358    O    0.96845   0.30855   0.18186   1.000
    O359    O    0.34957   0.50944   0.18218   1.000
    O360    O    0.91356   0.24888   0.18560   1.000
    O361    O    0.40020   0.56558   0.18613   1.000
    O362    O    0.43407   0.37110   0.18554   1.000
    O363    O    0.46937   0.33118   0.20402   1.000
    O364    O    0.87932   0.44242   0.18584   1.000
    O365    O    0.82556   0.46388   0.20418   1.000
    O366    O    0.99842   0.73189   0.21582   1.000
    O367    O    0.28369   0.05006   0.21621   1.000
    O368    O    0.70296   0.04751   0.23090   1.000
    O369    O    0.56681   0.72196   0.23097   1.000
    O370    O    0.94556   0.23354   0.24087   1.000
    O371    O    0.76788   0.49243   0.21878   1.000
    O372    O    0.71182   0.52550   0.23326   1.000
    O373    O    0.51240   0.28801   0.21875   1.000
    O374    O    0.55410   0.24059   0.23335   1.000
    O375    O    0.31332   0.52548   0.24135   1.000
    O376    O    0.44776   0.27867   0.26900   1.000
    O377    O    0.78168   0.45093   0.26928   1.000
    O378    O    0.66451   0.56541   0.24860   1.000
    O379    O    0.62200   0.59270   0.27303   1.000
    O380    O    0.58622   0.18545   0.24869   1.000
    O381    O    0.60451   0.13390   0.27308   1.000
    O382    O    0.73520   0.94856   0.26835   1.000
    O383    O    0.49748   0.78373   0.26850   1.000
    O384    O    0.97106   0.66165   0.26150   1.000
    O385    O    0.02229   0.72074   0.26674   1.000
    O386    O    0.26580   0.07475   0.26208   1.000
    O387    O    0.20919   0.01086   0.26690   1.000
    O388    O    0.92465   0.60390   0.26212   1.000
    O389    O    0.31176   0.13153   0.26308   1.000
    O390    O    0.05165   0.26913   0.27920   1.000
    O391    O    0.16940   0.45027   0.28009   1.000
    O392    O    0.65950   0.50933   0.30836   1.000
    O393    O    0.53120   0.18160   0.30844   1.000
    O394    O    0.69975   0.98806   0.27940   1.000
    O395    O    0.65746   0.02784   0.29819   1.000
    O396    O    0.52148   0.73292   0.27952   1.000
    O397    O    0.54458   0.67409   0.29825   1.000
    O398    O    0.15272   0.95181   0.27762   1.000
    O399    O    0.06760   0.76913   0.27782   1.000
    O400    O    0.94378   0.58529   0.31554   1.000
    O401    O    0.98717   0.21892   0.28837   1.000
    O402    O    0.91606   0.15818   0.30547   1.000
    O403    O    0.23953   0.09726   0.31629   1.000
    O404    O    0.22445   0.49208   0.28903   1.000
    O405    O    0.27820   0.53661   0.30582   1.000
    O406    O    0.12764   0.97138   0.32566   1.000
    O407    O    0.04524   0.70185   0.32571   1.000
    O408    O    0.69181   0.92379   0.33860   1.000
    O409    O    0.47020   0.73801   0.33877   1.000
    O410    O    0.03021   0.20414   0.33155   1.000
    O411    O    0.13843   0.46326   0.33230   1.000
    O412    O    0.56809   0.61234   0.32120   1.000
    O413    O    0.58936   0.55438   0.34826   1.000
    O414    O    0.61049   0.06630   0.32120   1.000
    O415    O    0.56180   0.09695   0.34828   1.000
    O416    O    0.85216   0.09885   0.32720   1.000
    O417    O    0.32015   0.57497   0.32734   1.000
    O418    O    0.60750   0.00396   0.37549   1.000
    O419    O    0.51688   0.62048   0.37554   1.000
    O420    O    0.88973   0.08472   0.36584   1.000
    O421    O    0.24413   0.55010   0.36605   1.000
    O422    O    0.92247   0.51862   0.36728   1.000
    O423    O    0.96719   0.56710   0.37437   1.000
    O424    O    0.61300   0.50325   0.36917   1.000
    O425    O    0.51695   0.12694   0.36921   1.000
    O426    O    0.20952   0.11242   0.36814   1.000
    O427    O    0.15762   0.05724   0.37488   1.000
    O428    O    0.10233   0.99525   0.37942   1.000
    O429    O    0.04283   0.93314   0.38740   1.000
    O430    O    0.01743   0.62458   0.37930   1.000
    O431    O    0.06856   0.67877   0.38761   1.000
    O432    O    0.06556   0.18565   0.37146   1.000
    O433    O    0.00428   0.12979   0.38974   1.000
    O434    O    0.06334   0.44159   0.37218   1.000
    O435    O    0.10610   0.47989   0.39026   1.000
    O436    O    0.68035   0.86669   0.39645   1.000
    O437    O    0.64224   0.90126   0.41498   1.000
    O438    O    0.42374   0.73726   0.39664   1.000
    O439    O    0.44300   0.68395   0.41513   1.000
    O440    O    0.54269   0.51053   0.44231   1.000
    O441    O    0.51463   0.04694   0.44232   1.000
    O442    O    0.99573   0.53983   0.44784   1.000
    O443    O    0.05606   0.01189   0.44799   1.000
    O444    O    0.93491   0.07112   0.40692   1.000
    O445    O    0.87118   0.02153   0.42000   1.000
    O446    O    0.15804   0.52221   0.40722   1.000
    O447    O    0.20849   0.55942   0.42015   1.000
    O448    O    0.96932   0.86570   0.40697   1.000
    O449    O    0.89970   0.81418   0.43430   1.000
    O450    O    0.12240   0.72678   0.40735   1.000
    O451    O    0.16480   0.75111   0.43477   1.000
    O452    O    0.82002   0.67346   0.42454   1.000
    O453    O    0.25457   0.90162   0.42475   1.000
    O454    O    0.96401   0.90271   0.44539   1.000
    O455    O    0.08958   0.65160   0.44577   1.000
    O456    O    0.98664   0.04268   0.45738   1.000
    O457    O    0.05597   0.49990   0.45756   1.000
    O458    O    0.60023   0.94165   0.43308   1.000
    O459    O    0.54418   0.98770   0.46024   1.000
    O460    O    0.46658   0.62526   0.43318   1.000
    O461    O    0.49547   0.55205   0.46027   1.000
    O462    O    0.43706   0.37221   0.44150   1.000
    O463    O    0.62089   0.18595   0.44178   1.000
    O464    O    0.35100   0.97906   0.43993   1.000
    O465    O    0.70855   0.58061   0.44008   1.000
    O466    O    0.71852   0.26953   0.45008   1.000
    O467    O    0.33124   0.28007   0.45012   1.000
    O468    O    0.74402   0.63461   0.44949   1.000
    O469    O    0.77790   0.69473   0.46313   1.000
    O470    O    0.30598   0.91569   0.44953   1.000
    O471    O    0.25833   0.84200   0.46336   1.000
    O472    O    0.59650   0.88619   0.48167   1.000
    O473    O    0.42178   0.63220   0.48180   1.000
    O474    O    0.36444   0.92919   0.47735   1.000
    O475    O    0.65795   0.59330   0.47749   1.000
    O476    O    0.36202   0.33219   0.46323   1.000
    O477    O    0.39416   0.39010   0.47997   1.000
    O478    O    0.67457   0.20438   0.46330   1.000
    O479    O    0.62564   0.12984   0.48018   1.000
    O480    O    0.73212   0.21910   0.49196   1.000
    O481    O    0.27604   0.28878   0.49211   1.000
    O482    O    0.81286   0.75906   0.47440   1.000
    O483    O    0.84913   0.81811   0.49053   1.000
    O484    O    0.21194   0.76641   0.47481   1.000
    O485    O    0.15953   0.69133   0.49104   1.000
    O486    O    0.96747   0.95296   0.48942   1.000
    O487    O    0.88966   0.87280   0.49665   1.000
    O488    O    0.04272   0.55762   0.48962   1.000
    O489    O    0.11298   0.63060   0.49710   1.000
    O490    O    0.57817   0.36784   0.51819   1.000
    O491    O    0.72398   0.71132   0.50786   1.000
    O492    O    0.40350   0.11390   0.51834   1.000
    O493    O    0.26785   0.78096   0.50806   1.000
    O494    O    0.88698   0.36947   0.50290   1.000
    O495    O    0.84044   0.30874   0.50896   1.000
    O496    O    0.11035   0.12728   0.50332   1.000
    O497    O    0.15089   0.18197   0.50941   1.000
    O498    O    0.44411   0.95743   0.49992   1.000
    O499    O    0.37435   0.87022   0.51982   1.000
    O500    O    0.44410   0.45747   0.49994   1.000
    O501    O    0.34204   0.40680   0.52249   1.000
    O502    O    0.55590   0.54264   0.50002   1.000
    O503    O    0.50453   0.44805   0.53969   1.000
    O504    O    0.45731   0.48958   0.55764   1.000
    O505    O    0.55588   0.04263   0.50006   1.000
    O506    O    0.45581   0.01237   0.53974   1.000
    O507    O    0.48536   0.95312   0.55766   1.000
    O508    O    0.95726   0.44246   0.51037   1.000
    O509    O    0.94403   0.50018   0.54239   1.000
    O510    O    0.00427   0.46026   0.55215   1.000
    O511    O    0.03254   0.04711   0.51056   1.000
    O512    O    0.01337   0.95738   0.54260   1.000
    O513    O    0.94395   0.98817   0.55199   1.000
    O514    O    0.60585   0.61002   0.51999   1.000
    O515    O    0.63555   0.07088   0.52264   1.000
    O516    O    0.78804   0.23366   0.52520   1.000
    O517    O    0.74165   0.15807   0.53665   1.000
    O518    O    0.18716   0.24102   0.52555   1.000
    O519    O    0.22211   0.30535   0.53686   1.000
    O520    O    0.91038   0.34848   0.55423   1.000
    O521    O    0.03600   0.09736   0.55458   1.000
    O522    O    0.83518   0.24897   0.56523   1.000
    O523    O    0.10031   0.18590   0.56563   1.000
    O524    O    0.63799   0.66792   0.53672   1.000
    O525    O    0.66878   0.72004   0.54983   1.000
    O526    O    0.32540   0.79568   0.53671   1.000
    O527    O    0.28144   0.73053   0.54995   1.000
    O528    O    0.37908   0.81411   0.55823   1.000
    O529    O    0.56295   0.62793   0.55843   1.000
    O530    O    0.25598   0.36546   0.55050   1.000
    O531    O    0.29144   0.41946   0.55991   1.000
    O532    O    0.69401   0.08437   0.55046   1.000
    O533    O    0.64900   0.02101   0.56004   1.000
    O534    O    0.53340   0.37481   0.56679   1.000
    O535    O    0.55695   0.31610   0.58486   1.000
    O536    O    0.39976   0.05843   0.56691   1.000
    O537    O    0.35775   0.09881   0.58503   1.000
    O538    O    0.74543   0.09844   0.57523   1.000
    O539    O    0.17998   0.32660   0.57296   1.000
    O540    O    0.79152   0.44074   0.57976   1.000
    O541    O    0.12883   0.97854   0.57998   1.000
    O542    O    0.48314   0.37963   0.62442   1.000
    O543    O    0.39248   0.99611   0.62449   1.000
    O544    O    0.84196   0.47789   0.59271   1.000
    O545    O    0.89390   0.52013   0.60972   1.000
    O546    O    0.06511   0.92895   0.59305   1.000
    O547    O    0.99574   0.87028   0.61023   1.000
    O548    O    0.87757   0.27330   0.59266   1.000
    O549    O    0.93141   0.32132   0.61235   1.000
    O550    O    0.03069   0.13438   0.59300   1.000
    O551    O    0.95718   0.06694   0.61258   1.000
    O552    O    0.57620   0.26279   0.60336   1.000
    O553    O    0.31964   0.13338   0.60358   1.000
    O554    O    0.75588   0.45002   0.63385   1.000
    O555    O    0.11028   0.91534   0.63415   1.000
    O556    O    0.89768   0.00483   0.62056   1.000
    O557    O    0.84239   0.94283   0.62511   1.000
    O558    O    0.98256   0.37551   0.62065   1.000
    O559    O    0.03281   0.43298   0.62562   1.000
    O560    O    0.38698   0.49685   0.63078   1.000
    O561    O    0.41064   0.44575   0.65169   1.000
    O562    O    0.48304   0.87312   0.63078   1.000
    O563    O    0.43819   0.90311   0.65170   1.000
    O564    O    0.52977   0.26207   0.66124   1.000
    O565    O    0.30817   0.07627   0.66141   1.000
    O566    O    0.79049   0.88764   0.63186   1.000
    O567    O    0.07754   0.48146   0.63272   1.000
    O568    O    0.93665   0.55837   0.62787   1.000
    O569    O    0.93446   0.81442   0.62851   1.000
    O570    O    0.86157   0.53673   0.66774   1.000
    O571    O    0.96981   0.79593   0.66840   1.000
    O572    O    0.95475   0.29823   0.67424   1.000
    O573    O    0.87238   0.02870   0.67432   1.000
    O574    O    0.76049   0.90280   0.68372   1.000
    O575    O    0.46879   0.81848   0.69155   1.000
    O576    O    0.34048   0.49076   0.69161   1.000
    O577    O    0.05623   0.41478   0.68445   1.000
    O578    O    0.67986   0.42515   0.67256   1.000
    O579    O    0.72180   0.46347   0.69411   1.000
    O580    O    0.14784   0.90121   0.67279   1.000
    O581    O    0.08394   0.84188   0.69452   1.000
    O582    O    0.43194   0.38780   0.67875   1.000
    O583    O    0.45545   0.32605   0.70171   1.000
    O584    O    0.38949   0.93376   0.67879   1.000
    O585    O    0.34253   0.97222   0.70181   1.000
    O586    O    0.39548   0.86616   0.72689   1.000
    O587    O    0.37803   0.40742   0.72692   1.000
    O588    O    0.21827   0.54913   0.73071   1.000
    O589    O    0.55225   0.72142   0.73099   1.000
    O590    O    0.77556   0.50794   0.71099   1.000
    O591    O    0.83060   0.54970   0.71991   1.000
    O592    O    0.01284   0.78114   0.71159   1.000
    O593    O    0.94836   0.73094   0.72075   1.000
    O594    O    0.47853   0.26720   0.72046   1.000
    O595    O    0.50251   0.21638   0.73151   1.000
    O596    O    0.30022   0.01199   0.72060   1.000
    O597    O    0.26477   0.05148   0.73167   1.000
    O598    O    0.93238   0.23095   0.72215   1.000
    O599    O    0.97645   0.27934   0.73324   1.000
    O600    O    0.84730   0.04827   0.72226   1.000
    O601    O    0.79082   0.98921   0.73308   1.000
    O602    O    0.68669   0.47457   0.75864   1.000
    O603    O    0.68826   0.86853   0.73694   1.000
    O604    O    0.73422   0.92531   0.73792   1.000
    O605    O    0.05444   0.76652   0.75883   1.000
    O606    O    0.07536   0.39616   0.73786   1.000
    O607    O    0.02769   0.33841   0.73847   1.000
    O608    O    0.43323   0.27821   0.76899   1.000
    O609    O    0.29702   0.95253   0.76909   1.000
    O610    O    0.41377   0.81462   0.75129   1.000
    O611    O    0.44590   0.75948   0.76661   1.000
    O612    O    0.33550   0.43470   0.75136   1.000
    O613    O    0.28816   0.47458   0.76672   1.000
    O614    O    0.71633   0.95000   0.78379   1.000
    O615    O    0.00000   0.26816   0.78415   1.000
    O616    O    0.23209   0.50763   0.78121   1.000
    O617    O    0.17441   0.53617   0.79583   1.000
    O618    O    0.48760   0.71207   0.78121   1.000
    O619    O    0.53064   0.66891   0.79597   1.000
    O620    O    0.08646   0.75118   0.81408   1.000
    O621    O    0.03154   0.69151   0.81785   1.000
    O622    O    0.59981   0.43448   0.81382   1.000
    O623    O    0.65044   0.49062   0.81777   1.000
    O624    O    0.41632   0.69483   0.84198   1.000
    O625    O    0.24186   0.46337   0.84229   1.000
    O626    O    0.12065   0.55764   0.81417   1.000
    O627    O    0.56595   0.62900   0.81444   1.000
    O628    O    0.12558   0.51959   0.87033   1.000
    O629    O    0.50453   0.61058   0.87031   1.000
    O630    O    0.53022   0.40712   0.86545   1.000
    O631    O    0.10462   0.72676   0.86605   1.000
    O632    O    0.82036   0.39685   0.86402   1.000
    O633    O    0.60999   0.49668   0.87255   1.000
    O634    O    0.01720   0.63076   0.87287   1.000
    O635    O    0.81190   0.73659   0.86788   1.000
    O636    O    0.90393   0.48191   0.88578   1.000
    O637    O    0.70950   0.63157   0.88727   1.000
    O638    O    0.35229   0.67297   0.90132   1.000
    O639    O    0.38985   0.63435   0.91541   1.000
    O640    O    0.24587   0.42519   0.90196   1.000
    O641    O    0.19431   0.44983   0.91594   1.000
    O642    O    0.85828   0.41531   0.89876   1.000
    O643    O    0.80880   0.33901   0.92119   1.000
    O644    O    0.73966   0.68343   0.90233   1.000
    O645    O    0.76609   0.73764   0.92475   1.000
    O646    O    0.53562   0.44547   0.90255   1.000
    O647    O    0.45679   0.38757   0.93311   1.000
    O648    O    0.06191   0.65163   0.90299   1.000
    O649    O    0.11043   0.67864   0.93380   1.000
    O650    O    0.53238   0.48946   0.95284   1.000
    O651    O    0.01471   0.55767   0.95302   1.000
    O652    O    0.90008   0.43332   0.94133   1.000
    O653    O    0.65773   0.62489   0.94254   1.000
    O654    O    0.43502   0.59326   0.92898   1.000
    O655    O    0.48671   0.54274   0.95738   1.000
    O656    O    0.13571   0.47751   0.92936   1.000
    O657    O    0.05590   0.49994   0.95747   1.000
    O658    O    0.34669   0.27785   0.95204   1.000
    O659    O    0.20264   0.76874   0.95287   1.000
    O660    O    0.76549   0.26883   0.94787   1.000
    O661    O    0.78414   0.78351   0.94938   1.000
    O662    O    0.37193   0.32588   0.97154   1.000
    O663    O    0.15719   0.70154   0.97246   1.000
    O664    O    0.95592   0.46037   0.98757   1.000
    O665    O    0.55614   0.55194   0.98804   1.000
loop_
    _geom_bond_atom_site_label_1
    _geom_bond_atom_site_label_2
    _geom_bond_distance
    _geom_bond_site_symmetry_2
    _ccdc_geom_bond_type
    C92    O306      0.54399  1_554   S
    C232   O306      0.54399      .   S
    C44    O307      0.54365  1_554   S
    C160   O307      0.54365      .   S
    C129   O308      0.69766      .   S
    C128   O308      0.69766      .   S
    C129   O309      0.54317      .   S
    C22    O309      0.54317      .   S
    C129   O310      0.69530  1_554   S
    C130   O310      0.69530      .   S
    C201   O311      0.69762      .   S
    C200   O311      0.69762      .   S
    C201   O312      0.54312      .   S
    C70    O312      0.54312      .   S
    C201   O313      0.69516  1_554   S
    C202   O313      0.69516      .   S
    C304   O314      0.67660      .   S
    C240   O314      0.67660      .   S
    C304   O315      0.68693  1_554   S
    C236   O315      0.68693      .   S
    C304   O316      0.99377      .   S
    C5     O316      0.99377  1_556   S
    C274   O317      0.67645      .   S
    C168   O317      0.67645      .   S
    C274   O318      0.68703  1_554   S
    C164   O318      0.68703      .   S
    C274   O319      0.99377      .   S
    C2     O319      0.99377  1_655   S
    C128   O320      0.72037      .   S
    C126   O320      0.72037      .   S
    C128   O321      0.68704      .   S
    C259   O321      0.68704  1_556   S
    C200   O322      0.71879      .   S
    C198   O322      0.71879      .   S
    C200   O323      0.68737      .   S
    C289   O323      0.68737  1_556   S
    C238   O324      0.54495      .   S
    C95    O324      0.54495      .   S
    C238   O325      0.69806      .   S
    C239   O325      0.69806      .   S
    C238   O326      0.69516      .   S
    C237   O326      0.69516  1_556   S
    C166   O327      0.54497      .   S
    C47    O327      0.54497      .   S
    C166   O328      0.69806      .   S
    C167   O328      0.69806      .   S
    C166   O329      0.69530      .   S
    C165   O329      0.69530  1_556   S
    C124   O330      0.68019      .   S
    C255   O330      0.68019      .   S
    C124   O331      0.69307      .   S
    C125   O331      0.69307      .   S
    C124   O332      0.54366      .   S
    C20    O332      0.54366  1_556   S
    C196   O333      0.68009      .   S
    C285   O333      0.68009      .   S
    C196   O334      0.69284      .   S
    C197   O334      0.69284      .   S
    C196   O335      0.54366      .   S
    C68    O335      0.54366  1_556   S
    C21    O336      0.54382      .   S
    C125   O336      0.54382      .   S
    C69    O337      0.54389      .   S
    C197   O337      0.54389      .   S
    C255   O338      0.67991      .   S
    C123   O338      0.67991      .   S
    C255   O339      1.00292      .   S
    C2     O339      1.00292      .   S
    C285   O340      0.67993      .   S
    C195   O340      0.67993      .   S
    C285   O341      1.00276      .   S
    C5     O341      1.00276  1_556   S
    C240   O342      0.69614      .   S
    C239   O342      0.69614      .   S
    C240   O343      0.54561      .   S
    C97    O343      0.54561      .   S
    C168   O344      0.69623      .   S
    C167   O344      0.69623      .   S
    C168   O345      0.54562      .   S
    C49    O345      0.54562      .   S
    C256   O346      0.68088      .   S
    C126   O346      0.68088      .   S
    C256   O347      0.67895      .   S
    C257   O347      0.67895      .   S
    C256   O348      0.97477      .   S
    C2     O348      0.97477      .   S
    C286   O349      0.67757      .   S
    C198   O349      0.67757      .   S
    C286   O350      0.67859      .   S
    C287   O350      0.67859      .   S
    C286   O351      0.97471      .   S
    C5     O351      0.97471  1_556   S
    C198   O352      0.67613      .   S
    C288   O352      0.67613      .   S
    C126   O353      0.67226      .   S
    C258   O353      0.67226      .   S
    C239   O354      0.54405      .   S
    C96    O354      0.54405      .   S
    C167   O355      0.54397      .   S
    C48    O355      0.54397      .   S
    C125   O356      0.70292      .   S
    C121   O356      0.70292      .   S
    C197   O357      0.70300      .   S
    C193   O357      0.70300      .   S
    C257   O358      0.68179      .   S
    C127   O358      0.68179      .   S
    C287   O359      0.68246      .   S
    C199   O359      0.68246      .   S
    C258   O360      0.68076      .   S
    C127   O360      0.68076      .   S
    C288   O361      0.68067      .   S
    C199   O361      0.68067      .   S
    C195   O362      0.54349      .   S
    C67    O362      0.54349      .   S
    C195   O363      0.69223      .   S
    C194   O363      0.69223      .   S
    C123   O364      0.54346      .   S
    C19    O364      0.54346      .   S
    C123   O365      0.69227      .   S
    C122   O365      0.69227      .   S
    C79    O366      0.54489      .   S
    C214   O366      0.54489      .   S
    C31    O367      0.54491      .   S
    C142   O367      0.54491      .   S
    C62    O368      0.54315      .   S
    C189   O368      0.54315      .   S
    C14    O369      0.54313      .   S
    C117   O369      0.54313      .   S
    C127   O370      0.72814      .   S
    C133   O370      0.72814      .   S
    C121   O371      0.70317      .   S
    C122   O371      0.70317      .   S
    C121   O372      0.72806      .   S
    C115   O372      0.72806      .   S
    C193   O373      0.70326      .   S
    C194   O373      0.70326      .   S
    C193   O374      0.72831      .   S
    C187   O374      0.72831      .   S
    C199   O375      0.72798      .   S
    C205   O375      0.72798      .   S
    C194   O376      0.54426      .   S
    C66    O376      0.54426      .   S
    C122   O377      0.54402      .   S
    C18    O377      0.54402      .   S
    C253   O378      0.68077      .   S
    C115   O378      0.68077      .   S
    C253   O379      0.67217      .   S
    C114   O379      0.67217      .   S
    C283   O380      0.68076      .   S
    C187   O380      0.68076      .   S
    C283   O381      0.67221      .   S
    C186   O381      0.67221      .   S
    C63    O382      0.54494      .   S
    C190   O382      0.54494      .   S
    C15    O383      0.54493      .   S
    C118   O383      0.54493      .   S
    C214   O384      0.69809      .   S
    C215   O384      0.69809      .   S
    C214   O385      0.69521  1_655   S
    C213   O385      0.69521      .   S
    C142   O386      0.69817      .   S
    C143   O386      0.69817      .   S
    C142   O387      0.69516      .   S
    C141   O387      0.69516  1_565   S
    C80    O388      0.54398      .   S
    C215   O388      0.54398      .   S
    C32    O389      0.54402      .   S
    C143   O389      0.54402      .   S
    C26    O390      0.54426      .   S
    C134   O390      0.54426      .   S
    C74    O391      0.54410      .   S
    C206   O391      0.54410      .   S
    C115   O392      0.68167      .   S
    C252   O392      0.68167      .   S
    C187   O393      0.68181      .   S
    C282   O393      0.68181      .   S
    C189   O394      0.69522  1_545   S
    C190   O394      0.69522      .   S
    C189   O395      0.69771      .   S
    C188   O395      0.69771      .   S
    C117   O396      0.69521      .   S
    C118   O396      0.69521      .   S
    C117   O397      0.69764      .   S
    C116   O397      0.69764      .   S
    C30    O398      0.54313      .   S
    C141   O398      0.54313      .   S
    C78    O399      0.54313      .   S
    C213   O399      0.54313      .   S
    C215   O400      0.69618      .   S
    C216   O400      0.69618      .   S
    C133   O401      0.70292      .   S
    C134   O401      0.70292  1_455   S
    C133   O402      0.70292      .   S
    C137   O402      0.70292      .   S
    C143   O403      0.69615      .   S
    C144   O403      0.69615      .   S
    C205   O404      0.70321      .   S
    C206   O404      0.70321      .   S
    C205   O405      0.70228      .   S
    C209   O405      0.70228      .   S
    C141   O406      0.69761      .   S
    C140   O406      0.69761      .   S
    C213   O407      0.69764      .   S
    C212   O407      0.69764      .   S
    C190   O408      0.69810      .   S
    C191   O408      0.69810      .   S
    C118   O409      0.69811      .   S
    C119   O409      0.69811      .   S
    C134   O410      0.69252      .   S
    C135   O410      0.69252      .   S
    C206   O411      0.69236      .   S
    C207   O411      0.69236      .   S
    C114   O412      0.72034      .   S
    C116   O412      0.72034      .   S
    C114   O413      0.68092      .   S
    C251   O413      0.68092      .   S
    C186   O414      0.72035      .   S
    C188   O414      0.72035      .   S
    C186   O415      0.68091      .   S
    C281   O415      0.68091      .   S
    C29    O416      0.54379      .   S
    C137   O416      0.54379      .   S
    C77    O417      0.54410      .   S
    C209   O417      0.54410      .   S
    C188   O418      0.68699      .   S
    C284   O418      0.68699  1_565   S
    C116   O419      0.68695      .   S
    C254   O419      0.68695      .   S
    C137   O420      0.69315      .   S
    C136   O420      0.69315      .   S
    C209   O421      0.69343      .   S
    C208   O421      0.69343      .   S
    C216   O422      0.54559      .   S
    C81    O422      0.54559      .   S
    C216   O423      0.67660      .   S
    C294   O423      0.67660      .   S
    C252   O424      0.67903      .   S
    C251   O424      0.67903      .   S
    C282   O425      0.67899      .   S
    C281   O425      0.67899      .   S
    C144   O426      0.54561      .   S
    C33    O426      0.54561      .   S
    C144   O427      0.67657      .   S
    C264   O427      0.67657      .   S
    C140   O428      0.68690      .   S
    C264   O428      0.68690  1_545   S
    C140   O429      0.72026      .   S
    C138   O429      0.72026  1_655   S
    C212   O430      0.68696      .   S
    C294   O430      0.68696  1_655   S
    C212   O431      0.72033      .   S
    C210   O431      0.72033      .   S
    C135   O432      0.54353      .   S
    C27    O432      0.54353      .   S
    C135   O433      0.67987      .   S
    C260   O433      0.67987  1_655   S
    C207   O434      0.54347      .   S
    C75    O434      0.54347      .   S
    C207   O435      0.67984      .   S
    C290   O435      0.67984      .   S
    C191   O436      0.54397      .   S
    C64    O436      0.54397      .   S
    C191   O437      0.69616      .   S
    C192   O437      0.69616      .   S
    C119   O438      0.54384      .   S
    C16    O438      0.54384      .   S
    C119   O439      0.69614      .   S
    C120   O439      0.69614      .   S
    C251   O440      0.97452      .   S
    C1     O440      0.97452      .   S
    C281   O441      0.97477      .   S
    C4     O441      0.97477      .   S
    C294   O442      0.99397      .   S
    C3     O442      0.99397      .   S
    C264   O443      0.99377      .   S
    C0     O443      0.99377      .   S
    C136   O444      0.68013      .   S
    C260   O444      0.68013      .   S
    C136   O445      0.54364      .   S
    C28    O445      0.54364  1_565   S
    C208   O446      0.68023      .   S
    C290   O446      0.68023      .   S
    C208   O447      0.54369      .   S
    C76    O447      0.54369      .   S
    C263   O448      0.67210      .   S
    C138   O448      0.67210      .   S
    C263   O449      0.68046      .   S
    C139   O449      0.68046      .   S
    C293   O450      0.67211      .   S
    C210   O450      0.67211      .   S
    C293   O451      0.68074      .   S
    C211   O451      0.68074      .   S
    C37    O452      0.54389      .   S
    C149   O452      0.54389      .   S
    C85    O453      0.54385      .   S
    C221   O453      0.54385      .   S
    C138   O454      0.68086      .   S
    C261   O454      0.68086      .   S
    C210   O455      0.68083      .   S
    C291   O455      0.68083      .   S
    C260   O456      1.00309      .   S
    C0     O456      1.00309  1_455   S
    C290   O457      1.00320      .   S
    C3     O457      1.00320  1_655   S
    C284   O458      0.67655      .   S
    C192   O458      0.67655      .   S
    C284   O459      0.99401      .   S
    C4     O459      0.99401  1_545   S
    C254   O460      0.67658      .   S
    C120   O460      0.67658      .   S
    C254   O461      0.99417      .   S
    C1     O461      0.99417      .   S
    C11    O462      0.54348      .   S
    C111   O462      0.54348      .   S
    C59    O463      0.54346      .   S
    C183   O463      0.54346      .   S
    C84    O464      0.54360  1_545   S
    C220   O464      0.54360      .   S
    C36    O465      0.54370      .   S
    C148   O465      0.54370      .   S
    C58    O466      0.54423      .   S
    C182   O466      0.54423      .   S
    C10    O467      0.54426      .   S
    C110   O467      0.54426      .   S
    C149   O468      0.69303      .   S
    C148   O468      0.69303      .   S
    C149   O469      0.70296      .   S
    C145   O469      0.70296      .   S
    C221   O470      0.69310      .   S
    C220   O470      0.69310      .   S
    C221   O471      0.70295      .   S
    C217   O471      0.70295      .   S
    C192   O472      0.54555      .   S
    C65    O472      0.54555      .   S
    C120   O473      0.54562      .   S
    C17    O473      0.54562      .   S
    C220   O474      0.68022      .   S
    C295   O474      0.68022      .   S
    C148   O475      0.68022      .   S
    C265   O475      0.68022      .   S
    C111   O476      0.69236      .   S
    C110   O476      0.69236      .   S
    C111   O477      0.67990      .   S
    C250   O477      0.67990      .   S
    C183   O478      0.69239      .   S
    C182   O478      0.69239      .   S
    C183   O479      0.67990      .   S
    C280   O479      0.67990      .   S
    C182   O480      0.70317      .   S
    C181   O480      0.70317      .   S
    C110   O481      0.70314      .   S
    C109   O481      0.70314      .   S
    C139   O482      0.72773      .   S
    C145   O482      0.72773      .   S
    C139   O483      0.68248      .   S
    C262   O483      0.68248      .   S
    C211   O484      0.72814      .   S
    C217   O484      0.72814      .   S
    C211   O485      0.68183      .   S
    C292   O485      0.68183      .   S
    C261   O486      0.97520      .   S
    C0     O486      0.97520  1_445   S
    C261   O487      0.67906      .   S
    C262   O487      0.67906      .   S
    C291   O488      0.97506      .   S
    C3     O488      0.97506  1_655   S
    C291   O489      0.67915      .   S
    C292   O489      0.67915      .   S
    C41    O490      0.54557      .   S
    C156   O490      0.54557      .   S
    C145   O491      0.70315      .   S
    C146   O491      0.70315      .   S
    C89    O492      0.54557      .   S
    C228   O492      0.54557      .   S
    C217   O493      0.70313      .   S
    C218   O493      0.70313      .   S
    C277   O494      0.67915      .   S
    C276   O494      0.67915      .   S
    C277   O495      0.68184      .   S
    C175   O495      0.68184      .   S
    C247   O496      0.67908      .   S
    C246   O496      0.67908      .   S
    C247   O497      0.68186      .   S
    C103   O497      0.68186      .   S
    C295   O498      1.00350      .   S
    C4     O498      1.00350  1_545   S
    C295   O499      0.67990      .   S
    C219   O499      0.67990      .   S
    C250   O500      1.00325      .   S
    C1     O500      1.00325      .   S
    C250   O501      0.68021      .   S
    C112   O501      0.68021      .   S
    C1     O502      1.00334      .   S
    C265   O502      1.00334      .   S
    C1     O503      0.99427      .   S
    C269   O503      0.99427      .   S
    C1     O504      0.97452      .   S
    C266   O504      0.97452      .   S
    C4     O505      1.00357      .   S
    C280   O505      1.00357      .   S
    C4     O506      0.99415      .   S
    C299   O506      0.99415      .   S
    C4     O507      0.97481  1_545   S
    C296   O507      0.97481      .   S
    C3     O508      0.97513      .   S
    C276   O508      0.97513      .   S
    C3     O509      1.00291      .   S
    C305   O509      1.00291      .   S
    C3     O510      0.99408  1_655   S
    C279   O510      0.99408      .   S
    C0     O511      0.97532      .   S
    C246   O511      0.97532      .   S
    C0     O512      1.00306  1_545   S
    C275   O512      1.00306      .   S
    C0     O513      0.99387  1_445   S
    C249   O513      0.99387      .   S
    C265   O514      0.67986      .   S
    C147   O514      0.67986      .   S
    C280   O515      0.68024      .   S
    C184   O515      0.68024      .   S
    C181   O516      0.72812      .   S
    C175   O516      0.72812      .   S
    C181   O517      0.70296      .   S
    C185   O517      0.70296      .   S
    C109   O518      0.72807      .   S
    C103   O518      0.72807      .   S
    C109   O519      0.70295      .   S
    C113   O519      0.70295      .   S
    C276   O520      0.68081      .   S
    C174   O520      0.68081      .   S
    C246   O521      0.68088      .   S
    C102   O521      0.68088      .   S
    C175   O522      0.68075      .   S
    C278   O522      0.68075      .   S
    C103   O523      0.68074      .   S
    C248   O523      0.68074      .   S
    C146   O524      0.69237      .   S
    C147   O524      0.69237      .   S
    C146   O525      0.54418      .   S
    C34    O525      0.54418      .   S
    C218   O526      0.69239      .   S
    C219   O526      0.69239      .   S
    C218   O527      0.54424      .   S
    C82    O527      0.54424      .   S
    C219   O528      0.54344      .   S
    C83    O528      0.54344      .   S
    C147   O529      0.54347      .   S
    C35    O529      0.54347      .   S
    C112   O530      0.69302      .   S
    C113   O530      0.69302      .   S
    C112   O531      0.54369      .   S
    C12    O531      0.54369      .   S
    C184   O532      0.69307      .   S
    C185   O532      0.69307      .   S
    C184   O533      0.54362      .   S
    C60    O533      0.54362  1_565   S
    C156   O534      0.67658      .   S
    C269   O534      0.67658      .   S
    C156   O535      0.69616      .   S
    C155   O535      0.69616      .   S
    C228   O536      0.67655      .   S
    C299   O536      0.67655      .   S
    C228   O537      0.69616      .   S
    C227   O537      0.69616      .   S
    C185   O538      0.54385      .   S
    C61    O538      0.54385      .   S
    C113   O539      0.53412      .   S
    C13    O539      0.53412      .   S
    C100   O540      0.54368      .   S
    C244   O540      0.54368      .   S
    C52    O541      0.54363  1_545   S
    C172   O541      0.54363      .   S
    C269   O542      0.68699      .   S
    C152   O542      0.68699      .   S
    C299   O543      0.68701  1_545   S
    C224   O543      0.68701      .   S
    C305   O544      0.68012      .   S
    C244   O544      0.68012      .   S
    C305   O545      0.68014      .   S
    C243   O545      0.68014      .   S
    C275   O546      0.68003      .   S
    C172   O546      0.68003      .   S
    C275   O547      0.67988  1_455   S
    C171   O547      0.67988      .   S
    C174   O548      0.67212      .   S
    C278   O548      0.67212      .   S
    C174   O549      0.71973      .   S
    C176   O549      0.71973      .   S
    C102   O550      0.67209      .   S
    C248   O550      0.67209      .   S
    C102   O551      0.72026  1_455   S
    C104   O551      0.72026      .   S
    C40    O552      0.54397      .   S
    C155   O552      0.54397      .   S
    C88    O553      0.54398      .   S
    C227   O553      0.54398      .   S
    C244   O554      0.69309      .   S
    C245   O554      0.69309      .   S
    C172   O555      0.69326      .   S
    C173   O555      0.69326      .   S
    C249   O556      0.68689  1_565   S
    C104   O556      0.68689      .   S
    C249   O557      0.67659      .   S
    C108   O557      0.67659      .   S
    C279   O558      0.68707  1_455   S
    C176   O558      0.68707      .   S
    C279   O559      0.67660      .   S
    C180   O559      0.67660      .   S
    C266   O560      0.67903      .   S
    C267   O560      0.67903      .   S
    C266   O561      0.68097      .   S
    C150   O561      0.68097      .   S
    C296   O562      0.67899      .   S
    C297   O562      0.67899      .   S
    C296   O563      0.68084      .   S
    C222   O563      0.68084      .   S
    C155   O564      0.69807      .   S
    C154   O564      0.69807      .   S
    C227   O565      0.69806      .   S
    C226   O565      0.69806      .   S
    C9     O566      0.54559      .   S
    C108   O566      0.54559      .   S
    C57    O567      0.54560      .   S
    C180   O567      0.54560      .   S
    C99    O568      0.54346      .   S
    C243   O568      0.54346      .   S
    C51    O569      0.54347      .   S
    C171   O569      0.54347      .   S
    C243   O570      0.69227      .   S
    C242   O570      0.69227      .   S
    C171   O571      0.69233      .   S
    C170   O571      0.69233      .   S
    C176   O572      0.69806      .   S
    C177   O572      0.69806      .   S
    C104   O573      0.69758      .   S
    C105   O573      0.69758      .   S
    C108   O574      0.69616      .   S
    C107   O574      0.69616      .   S
    C297   O575      0.68182      .   S
    C223   O575      0.68182      .   S
    C267   O576      0.68184      .   S
    C151   O576      0.68184      .   S
    C180   O577      0.69616      .   S
    C179   O577      0.69616      .   S
    C245   O578      0.54385      .   S
    C101   O578      0.54385      .   S
    C245   O579      0.70292      .   S
    C241   O579      0.70292      .   S
    C173   O580      0.54383      .   S
    C53    O580      0.54383      .   S
    C173   O581      0.70293      .   S
    C169   O581      0.70293      .   S
    C152   O582      0.72032      .   S
    C150   O582      0.72032      .   S
    C152   O583      0.69760      .   S
    C153   O583      0.69760      .   S
    C224   O584      0.72034      .   S
    C222   O584      0.72034      .   S
    C224   O585      0.69771      .   S
    C225   O585      0.69771      .   S
    C222   O586      0.67213      .   S
    C298   O586      0.67213      .   S
    C150   O587      0.67218      .   S
    C268   O587      0.67218      .   S
    C42    O588      0.54428      .   S
    C158   O588      0.54428      .   S
    C90    O589      0.54427      .   S
    C230   O589      0.54427      .   S
    C242   O590      0.70314      .   S
    C241   O590      0.70314      .   S
    C242   O591      0.54349      .   S
    C98    O591      0.54349      .   S
    C170   O592      0.70317  1_655   S
    C169   O592      0.70317      .   S
    C170   O593      0.54425      .   S
    C50    O593      0.54425      .   S
    C154   O594      0.69520      .   S
    C153   O594      0.69520      .   S
    C154   O595      0.54494      .   S
    C39    O595      0.54494      .   S
    C226   O596      0.69521      .   S
    C225   O596      0.69521  1_565   S
    C226   O597      0.54493      .   S
    C87    O597      0.54493      .   S
    C177   O598      0.54314      .   S
    C54    O598      0.54314      .   S
    C177   O599      0.68212      .   S
    C178   O599      0.68212  1_455   S
    C105   O600      0.54186      .   S
    C6     O600      0.54186      .   S
    C105   O601      0.69516  1_545   S
    C106   O601      0.69516      .   S
    C241   O602      0.72801      .   S
    C235   O602      0.72801      .   S
    C107   O603      0.54402      .   S
    C8     O603      0.54402      .   S
    C107   O604      0.69817      .   S
    C106   O604      0.69817      .   S
    C169   O605      0.72447      .   S
    C163   O605      0.72447      .   S
    C179   O606      0.54399      .   S
    C56    O606      0.54399      .   S
    C179   O607      0.70117      .   S
    C178   O607      0.70117      .   S
    C153   O608      0.54313      .   S
    C38    O608      0.54313      .   S
    C225   O609      0.54318      .   S
    C86    O609      0.54318      .   S
    C223   O610      0.68069      .   S
    C298   O610      0.68069      .   S
    C223   O611      0.72812      .   S
    C229   O611      0.72812      .   S
    C151   O612      0.68075      .   S
    C268   O612      0.68075      .   S
    C151   O613      0.72804      .   S
    C157   O613      0.72804      .   S
    C106   O614      0.54489      .   S
    C7     O614      0.54489      .   S
    C178   O615      0.55271      .   S
    C55    O615      0.55271      .   S
    C158   O616      0.70316      .   S
    C157   O616      0.70316      .   S
    C158   O617      0.69224      .   S
    C159   O617      0.69224      .   S
    C230   O618      0.70315      .   S
    C229   O618      0.70315      .   S
    C230   O619      0.69226      .   S
    C231   O619      0.69226      .   S
    C163   O620      0.68517      .   S
    C273   O620      0.68517      .   S
    C163   O621      0.68153      .   S
    C272   O621      0.68153      .   S
    C235   O622      0.68084      .   S
    C303   O622      0.68084      .   S
    C235   O623      0.68183      .   S
    C302   O623      0.68183      .   S
    C229   O624      0.70296      .   S
    C233   O624      0.70296      .   S
    C157   O625      0.70253      .   S
    C161   O625      0.70253      .   S
    C43    O626      0.54346      .   S
    C159   O626      0.54346      .   S
    C91    O627      0.54350      .   S
    C231   O627      0.54350      .   S
    C159   O628      0.67993      .   S
    C270   O628      0.67993      .   S
    C231   O629      0.67982      .   S
    C300   O629      0.67982      .   S
    C303   O630      0.67268      .   S
    C234   O630      0.67268      .   S
    C273   O631      0.67222      .   S
    C162   O631      0.67222      .   S
    C24    O632      0.51350      .   S
    C131   O632      0.51350      .   S
    C302   O633      0.67887      .   S
    C301   O633      0.67887      .   S
    C272   O634      0.67898      .   S
    C271   O634      0.67898      .   S
    C72    O635      0.54401      .   S
    C203   O635      0.54401      .   S
    C25    O636      0.54561      .   S
    C132   O636      0.54561      .   S
    C73    O637      0.54560      .   S
    C204   O637      0.54560      .   S
    C233   O638      0.54383      .   S
    C93    O638      0.54383      .   S
    C233   O639      0.69288      .   S
    C232   O639      0.69288      .   S
    C161   O640      0.54401      .   S
    C45    O640      0.54401      .   S
    C161   O641      0.69332      .   S
    C160   O641      0.69332      .   S
    C131   O642      0.72101      .   S
    C132   O642      0.72101      .   S
    C131   O643      0.70582      .   S
    C130   O643      0.70582      .   S
    C203   O644      0.69611      .   S
    C204   O644      0.69611      .   S
    C203   O645      0.69812      .   S
    C202   O645      0.69812      .   S
    C234   O646      0.68078      .   S
    C301   O646      0.68078      .   S
    C234   O647      0.72031      .   S
    C236   O647      0.72031      .   S
    C162   O648      0.68084      .   S
    C271   O648      0.68084      .   S
    C162   O649      0.72045      .   S
    C164   O649      0.72045      .   S
    C301   O650      0.97485      .   S
    C5     O650      0.97485      .   S
    C271   O651      0.97472      .   S
    C2     O651      0.97472  1_654   S
    C132   O652      0.67657      .   S
    C259   O652      0.67657      .   S
    C204   O653      0.67642      .   S
    C289   O653      0.67642      .   S
    C300   O654      0.68004      .   S
    C232   O654      0.68004      .   S
    C300   O655      1.00281      .   S
    C5     O655      1.00281      .   S
    C270   O656      0.68019      .   S
    C160   O656      0.68019      .   S
    C270   O657      1.00284      .   S
    C2     O657      1.00284  1_654   S
    C94    O658      0.54325      .   S
    C237   O658      0.54325      .   S
    C46    O659      0.54318      .   S
    C165   O659      0.54318      .   S
    C23    O660      0.54496      .   S
    C130   O660      0.54496      .   S
    C71    O661      0.54494      .   S
    C202   O661      0.54494      .   S
    C236   O662      0.69760      .   S
    C237   O662      0.69760      .   S
    C164   O663      0.69763      .   S
    C165   O663      0.69763      .   S
    C259   O664      0.99384      .   S
    C2     O664      0.99384  1_554   S
    C289   O665      0.99345      .   S
    C5     O665      0.99345      .   S
