# CIF file generated by openbabel 2.4.90, see http://openbabel.sf.net
data_I
_chemical_name_common ''
_cell_length_a 16.341
_cell_length_b 18.078
_cell_length_c 18.066
_cell_angle_alpha 68.745
_cell_angle_beta 72.547
_cell_angle_gamma 107.43
_space_group_name_H-M_alt 'P 1'
_space_group_name_Hall 'P 1'
loop_
    _symmetry_equiv_pos_as_xyz
    x,y,z
loop_
    _atom_site_label
    _atom_site_type_symbol
    _atom_site_fract_x
    _atom_site_fract_y
    _atom_site_fract_z
    _atom_site_occupancy
    Zr0     Zr   0.00001   0.00003   0.49999   1.000
    Zr1     Zr   0.50000   0.50005   0.49998   1.000
    Zr2     Zr   1.00000   0.50003   0.00000   1.000
    Zr3     Zr   1.00000   0.50004   0.49999   1.000
    Zr4     Zr   0.50000   0.00003   0.49999   1.000
    Zr5     Zr   0.50001   0.50004   0.99999   1.000
    N6      N    0.56014   0.14497   0.30954   1.000
    O7      O    0.53738   0.09595   0.37593   1.000
    O8      O    0.52633   0.40299   0.09319   1.000
    O9      O    0.60434   0.96914   0.40541   1.000
    N10     N    0.06035   0.69037   0.85477   1.000
    O11     O    0.03753   0.62402   0.90390   1.000
    O12     O    0.10403   0.59441   0.03117   1.000
    O13     O    0.02651   0.90675   0.59685   1.000
    N14     N    0.62967   0.54501   0.30949   1.000
    O15     O    0.58618   0.52777   0.37590   1.000
    O16     O    0.88029   0.50375   0.09308   1.000
    O17     O    0.49040   0.62559   0.40548   1.000
    N18     N    0.08565   0.14538   0.54519   1.000
    O19     O    0.05909   0.09625   0.52788   1.000
    O20     O    0.37684   0.40324   0.50331   1.000
    O21     O    0.86598   0.97001   0.62554   1.000
    N22     N    0.91437   0.85470   0.45477   1.000
    O23     O    0.94092   0.90383   0.47210   1.000
    O24     O    0.13403   0.03005   0.37444   1.000
    O25     O    0.62317   0.59686   0.49641   1.000
    N26     N    0.37033   0.45510   0.69047   1.000
    O27     O    0.41382   0.47234   0.62406   1.000
    O28     O    0.50959   0.37451   0.59449   1.000
    O29     O    0.11969   0.49632   0.90692   1.000
    N30     N    0.41480   0.54519   0.14541   1.000
    O31     O    0.44122   0.52790   0.09627   1.000
    O32     O    0.63422   0.62540   0.96974   1.000
    O33     O    0.12334   0.50345   0.40346   1.000
    N34     N    0.93965   0.30969   0.14511   1.000
    O35     O    0.96246   0.37604   0.09605   1.000
    O36     O    0.97350   0.09331   0.40313   1.000
    O37     O    0.89595   0.40565   0.96864   1.000
    N38     N    0.87011   0.30979   0.54480   1.000
    O39     O    0.91369   0.37613   0.52758   1.000
    O40     O    0.61964   0.09327   0.50363   1.000
    O41     O    0.00892   0.40535   0.62583   1.000
    N42     N    0.58522   0.45487   0.85443   1.000
    O43     O    0.55880   0.47217   0.90364   1.000
    O44     O    0.36579   0.37468   0.03023   1.000
    O45     O    0.87667   0.49662   0.59651   1.000
    N46     N    0.12986   0.69028   0.45521   1.000
    O47     O    0.08629   0.62395   0.47241   1.000
    O48     O    0.99092   0.59473   0.37416   1.000
    O49     O    0.38034   0.90680   0.49637   1.000
    N50     N    0.43985   0.85510   0.69044   1.000
    O51     O    0.46261   0.90411   0.62405   1.000
    O52     O    0.39565   0.03092   0.59459   1.000
    O53     O    0.47367   0.59709   0.90678   1.000
loop_
    _geom_bond_atom_site_label_1
    _geom_bond_atom_site_label_2
    _geom_bond_distance
    _geom_bond_site_symmetry_2
    _ccdc_geom_bond_type
    N6     O7        1.06141      .   S
    Zr4    O7        2.03212      .   S
    N6     O8        5.19228      .   S
    Zr5    O8        2.20076  1_556   S
    N6     O9        3.42922  1_545   S
    Zr4    O9        2.37771  1_545   S
    N10    O11       1.06171      .   S
    Zr2    O11       2.03242  1_654   S
    N10    O12       3.43130  1_556   S
    Zr2    O12       2.37729  1_655   S
    N10    O13       5.19085      .   S
    Zr0    O13       2.20134  1_545   S
    N14    O15       1.06136      .   S
    Zr1    O15       2.03186      .   S
    N14    O16       5.19177      .   S
    Zr2    O16       2.20132      .   S
    N14    O17       3.42911      .   S
    Zr1    O17       2.37787      .   S
    N18    O19       1.06165      .   S
    Zr0    O19       2.03287      .   S
    N18    O20       5.19028      .   S
    Zr1    O20       2.20415      .   S
    N18    O21       3.42973  1_445   S
    Zr0    O21       2.37727  1_445   S
    N22    O23       1.06167      .   S
    Zr0    O23       2.03278  1_445   S
    N22    O24       3.42971  1_665   S
    Zr0    O24       2.37723      .   S
    N22    O25       5.19214      .   S
    Zr1    O25       2.20183      .   S
    N26    O27       1.06139      .   S
    Zr1    O27       2.03187      .   S
    N26    O28       3.42913      .   S
    Zr1    O28       2.37798      .   S
    N26    O29       5.19180      .   S
    Zr2    O29       2.20122  1_654   S
    N30    O31       1.06024      .   S
    Zr5    O31       2.03093  1_556   S
    N30    O32       3.42837  1_554   S
    Zr5    O32       2.37688      .   S
    N30    O33       5.19273      .   S
    Zr3    O33       2.20152  1_655   S
    N34    O35       1.06138      .   S
    Zr2    O35       2.03210      .   S
    N34    O36       5.19211      .   S
    Zr0    O36       2.20138  1_455   S
    N34    O37       3.43249  1_554   S
    Zr2    O37       2.37998  1_554   S
    N38    O39       1.06161      .   S
    Zr3    O39       2.03269      .   S
    N38    O40       5.19287      .   S
    Zr4    O40       2.20251      .   S
    N38    O41       3.42790  1_655   S
    Zr3    O41       2.37623  1_655   S
    N42    O43       1.06141      .   S
    Zr5    O43       2.03221      .   S
    N42    O44       3.42959  1_556   S
    Zr5    O44       2.37717  1_556   S
    N42    O45       5.19130      .   S
    Zr3    O45       2.20115      .   S
    N46    O47       1.06163      .   S
    Zr3    O47       2.03264  1_655   S
    N46    O48       3.42956  1_455   S
    Zr3    O48       2.37760      .   S
    N46    O49       5.19276      .   S
    Zr4    O49       2.20240  1_545   S
    N50    O51       1.06139      .   S
    Zr4    O51       2.03215  1_545   S
    N50    O52       3.42915  1_565   S
    Zr4    O52       2.37796      .   S
    N50    O53       5.19214      .   S
    Zr5    O53       2.20086      .   S
