# CIF file generated by openbabel 2.4.90, see http://openbabel.sf.net
data_I
_chemical_name_common ''
_cell_length_a 16.341
_cell_length_b 18.078
_cell_length_c 18.066
_cell_angle_alpha 68.745
_cell_angle_beta 72.547
_cell_angle_gamma 107.43
_space_group_name_H-M_alt 'P 1'
_space_group_name_Hall 'P 1'
loop_
    _symmetry_equiv_pos_as_xyz
    x,y,z
loop_
    _atom_site_label
    _atom_site_type_symbol
    _atom_site_fract_x
    _atom_site_fract_y
    _atom_site_fract_z
    _atom_site_occupancy
    N0      N    0.56014   0.14497   0.30954   1.000
    N1      N    0.06035   0.69037   0.85477   1.000
    N2      N    0.62967   0.54501   0.30949   1.000
    N3      N    0.08565   0.14538   0.54519   1.000
    N4      N    0.91437   0.85470   0.45477   1.000
    N5      N    0.37033   0.45510   0.69047   1.000
    N6      N    0.41480   0.54519   0.14541   1.000
    N7      N    0.93965   0.30969   0.14511   1.000
    N8      N    0.87011   0.30979   0.54480   1.000
    N9      N    0.58522   0.45487   0.85443   1.000
    N10     N    0.12986   0.69028   0.45521   1.000
    N11     N    0.43985   0.85510   0.69044   1.000
    Zr12    Zr   0.50001   0.50005   0.99999   1.000
    O13     O    0.48684   0.54857   0.95339   1.000
    O14     O    0.47061   0.51397   0.04813   1.000
    O15     O    0.52940   0.48611   0.95181   1.000
    O16     O    0.51317   0.45152   0.04659   1.000
    O17     O    0.43290   0.43736   0.01511   1.000
    O18     O    0.56711   0.56272   0.98486   1.000
    Zr19    Zr   1.00000   0.50003   0.00000   1.000
    O20     O    0.94014   0.50189   0.04654   1.000
    O21     O    0.05984   0.49817   0.95346   1.000
    O22     O    0.98123   0.43804   0.04802   1.000
    O23     O    0.94797   0.45284   0.98432   1.000
    O24     O    0.01876   0.56203   0.95195   1.000
    O25     O    0.05201   0.54722   0.01559   1.000
    Zr26    Zr   1.00000   0.50004   0.49999   1.000
    O27     O    0.06167   0.50174   0.45172   1.000
    O28     O    0.99546   0.54738   0.43707   1.000
    O29     O    0.93833   0.49833   0.54825   1.000
    O30     O    0.04314   0.56200   0.48620   1.000
    O31     O    0.00446   0.45270   0.56291   1.000
    O32     O    0.95684   0.43808   0.51379   1.000
    Zr33    Zr   0.50000   0.50005   0.49998   1.000
    O34     O    0.56158   0.54846   0.49820   1.000
    O35     O    0.45691   0.48620   0.56202   1.000
    O36     O    0.49520   0.56282   0.45273   1.000
    O37     O    0.50480   0.43728   0.54724   1.000
    O38     O    0.43842   0.45164   0.50164   1.000
    O39     O    0.54309   0.51391   0.43794   1.000
    Zr40    Zr   0.50000   0.00003   0.49999   1.000
    O41     O    0.44017   0.95341   0.49818   1.000
    O42     O    0.55982   0.04665   0.50181   1.000
    O43     O    0.51869   0.04799   0.43796   1.000
    O44     O    0.44782   0.01548   0.54729   1.000
    O45     O    0.55217   0.98459   0.45270   1.000
    O46     O    0.48130   0.95207   0.56202   1.000
    Zr47    Zr   0.00001   0.00003   0.49999   1.000
    O48     O    0.98675   0.04667   0.45156   1.000
    O49     O    0.02955   0.04814   0.51393   1.000
    O50     O    0.93299   0.98502   0.56276   1.000
    O51     O    0.06702   0.01504   0.43722   1.000
    O52     O    0.01326   0.95339   0.54842   1.000
    O53     O    0.97046   0.95193   0.48604   1.000
loop_
    _geom_bond_atom_site_label_1
    _geom_bond_atom_site_label_2
    _geom_bond_distance
    _geom_bond_site_symmetry_2
    _ccdc_geom_bond_type
    Zr12   O13       1.10043      .   S
    N11    O13       6.28599      .   S
    Zr12   O14       1.01546  1_556   S
    N6     O14       2.07476      .   S
    Zr12   O15       1.01610      .   S
    N9     O15       2.07657      .   S
    Zr12   O16       1.10038  1_556   S
    N0     O16       6.28609      .   S
    Zr12   O17       1.18859  1_556   S
    N9     O17       3.04131  1_556   S
    Zr12   O18       1.18844      .   S
    N6     O18       3.03944  1_554   S
    Zr19   O20       1.10066      .   S
    N2     O20       6.28580      .   S
    Zr19   O21       1.10061  1_654   S
    N5     O21       6.28580      .   S
    Zr19   O22       1.01605      .   S
    N7     O22       2.07648      .   S
    Zr19   O23       1.18999  1_554   S
    N7     O23       3.04233  1_554   S
    Zr19   O24       1.01621  1_654   S
    N1     O24       2.07698      .   S
    Zr19   O25       1.18865  1_655   S
    N1     O25       3.04253  1_556   S
    Zr26   O27       1.10076  1_655   S
    N6     O27       6.28635      .   S
    Zr26   O28       1.18880      .   S
    N10    O28       3.04155  1_455   S
    Zr26   O29       1.10057      .   S
    N9     O29       6.28475      .   S
    Zr26   O30       1.01632  1_655   S
    N10    O30       2.07700      .   S
    Zr26   O31       1.18811  1_655   S
    N8     O31       3.04089  1_655   S
    Zr26   O32       1.01634      .   S
    N8     O32       2.07700      .   S
    Zr33   O34       1.10091      .   S
    N4     O34       6.28623      .   S
    Zr33   O35       1.01594      .   S
    N5     O35       2.07639      .   S
    Zr33   O36       1.18893      .   S
    N2     O36       3.04071      .   S
    Zr33   O37       1.18899      .   S
    N5     O37       3.04072      .   S
    Zr33   O38       1.10208      .   S
    N3     O38       6.28533      .   S
    Zr33   O39       1.01593      .   S
    N2     O39       2.07635      .   S
    Zr40   O41       1.10120  1_545   S
    N10    O41       6.28737      .   S
    Zr40   O42       1.10125      .   S
    N8     O42       6.28754      .   S
    Zr40   O43       1.01606      .   S
    N0     O43       2.07652      .   S
    Zr40   O44       1.18898      .   S
    N11    O44       3.04088  1_565   S
    Zr40   O45       1.18886  1_545   S
    N0     O45       3.04096  1_545   S
    Zr40   O46       1.01608  1_545   S
    N11    O46       2.07652      .   S
    Zr47   O48       1.10069  1_455   S
    N7     O48       6.28601      .   S
    Zr47   O49       1.01644      .   S
    N3     O49       2.07713      .   S
    Zr47   O50       1.18863  1_445   S
    N3     O50       3.04183  1_445   S
    Zr47   O51       1.18862      .   S
    N4     O51       3.04179  1_665   S
    Zr47   O52       1.10067  1_545   S
    N1     O52       6.28475      .   S
    Zr47   O53       1.01639  1_445   S
    N4     O53       2.07711      .   S
