# CIF file generated by openbabel 2.4.90, see http://openbabel.sf.net
data_I
_chemical_name_common ''
_cell_length_a 6.608
_cell_length_b 17.299
_cell_length_c 18.381
_cell_angle_alpha 89.998
_cell_angle_beta 89.996
_cell_angle_gamma 81.79
_space_group_name_H-M_alt 'P 1'
_space_group_name_Hall 'P 1'
loop_
    _symmetry_equiv_pos_as_xyz
    x,y,z
loop_
    _atom_site_label
    _atom_site_type_symbol
    _atom_site_fract_x
    _atom_site_fract_y
    _atom_site_fract_z
    _atom_site_occupancy
    Zr0     Zr   0.25860   0.69998   0.51829   1.000
    Zr1     Zr   0.73905   0.79992   0.01828   1.000
    Zr2     Zr   0.73907   0.29992   0.48173   1.000
    Zr3     Zr   0.25862   0.19998   0.98169   1.000
    N4      N    0.47883   0.75123   0.27364   1.000
    O5      O    0.32633   0.72387   0.37391   1.000
    O6      O    0.64367   0.77726   0.16964   1.000
    N7      N    0.49974   0.49986   0.00004   1.000
    O8      O    0.59505   0.62269   0.00683   1.000
    O9      O    0.40390   0.37709   0.99321   1.000
    N10     N    0.99989   0.00004   0.00002   1.000
    O11     O    0.80561   0.92020   0.00802   1.000
    O12     O    0.19353   0.07982   0.99200   1.000
    N13     N    0.52170   0.74880   0.77350   1.000
    O14     O    0.67298   0.77610   0.87386   1.000
    O15     O    0.35570   0.72271   0.66961   1.000
    N16     N    0.49974   0.99986   0.49996   1.000
    O17     O    0.40389   0.87709   0.50679   1.000
    O18     O    0.59506   0.12269   0.49318   1.000
    N19     N    0.99989   0.50004   0.49998   1.000
    O20     O    0.19351   0.57982   0.50799   1.000
    O21     O    0.80563   0.42020   0.49198   1.000
    N22     N    0.52171   0.24881   0.72650   1.000
    O23     O    0.67300   0.27610   0.62614   1.000
    O24     O    0.35571   0.22272   0.83038   1.000
    N25     N    0.47884   0.25123   0.22636   1.000
    O26     O    0.32634   0.22386   0.12608   1.000
    O27     O    0.64368   0.27727   0.33037   1.000
loop_
    _geom_bond_atom_site_label_1
    _geom_bond_atom_site_label_2
    _geom_bond_distance
    _geom_bond_site_symmetry_2
    _ccdc_geom_bond_type
    N4     O5        2.18461      .   S
    Zr0    O5        2.73251      .   S
    N4     O6        2.27669      .   S
    Zr1    O6        2.89149      .   S
    N7     O8        2.30414      .   S
    Zr1    O8        3.34412      .   S
    N7     O9        2.30471  1_554   S
    Zr3    O9        3.34569      .   S
    N10    O11       2.02074  1_545   S
    Zr1    O11       2.19542      .   S
    N10    O12       2.01692  1_654   S
    Zr3    O12       2.19027      .   S
    N13    O14       2.18180      .   S
    Zr1    O14       2.73119  1_554   S
    N13    O15       2.27931      .   S
    Zr0    O15       2.89400      .   S
    N16    O17       2.30473      .   S
    Zr0    O17       3.34570      .   S
    N16    O18       2.30416  1_565   S
    Zr2    O18       3.34413      .   S
    N19    O20       2.01687  1_655   S
    Zr0    O20       2.19023      .   S
    N19    O21       2.02068      .   S
    Zr2    O21       2.19541      .   S
    N22    O23       2.18156      .   S
    Zr2    O23       2.73092      .   S
    N22    O24       2.27904      .   S
    Zr3    O24       2.89372      .   S
    N25    O26       2.18482      .   S
    Zr3    O26       2.73276  1_556   S
    N25    O27       2.27697      .   S
    Zr2    O27       2.89180      .   S
