# CIF file generated by openbabel 2.4.90, see http://openbabel.sf.net
data_I
_chemical_name_common ''
_cell_length_a 6.608
_cell_length_b 17.299
_cell_length_c 18.381
_cell_angle_alpha 89.998
_cell_angle_beta 89.996
_cell_angle_gamma 81.79
_space_group_name_H-M_alt 'P 1'
_space_group_name_Hall 'P 1'
loop_
    _symmetry_equiv_pos_as_xyz
    x,y,z
loop_
    _atom_site_label
    _atom_site_type_symbol
    _atom_site_fract_x
    _atom_site_fract_y
    _atom_site_fract_z
    _atom_site_occupancy
    C0      C    0.25860   0.69998   0.51829   1.000
    C1      C    0.73905   0.79992   0.01828   1.000
    C2      C    0.73907   0.29992   0.48173   1.000
    C3      C    0.25862   0.19998   0.98169   1.000
    C4      C    0.64343   0.77425   0.55721   1.000
    C5      C    0.75048   0.90228   0.55337   1.000
    C6      C    0.17397   0.98835   0.44800   1.000
    C7      C    0.08830   0.85429   0.45639   1.000
    C8      C    0.48390   0.60256   0.40257   1.000
    C9      C    0.81458   0.51777   0.38846   1.000
    C10     C    0.90268   0.54017   0.62091   1.000
    C11     C    0.56690   0.62252   0.62532   1.000
    C12     C    0.59788   0.84282   0.36424   1.000
    C13     C    0.68552   0.62292   0.25153   1.000
    C14     C    0.35512   0.65990   0.18693   1.000
    C15     C    0.26988   0.88086   0.29772   1.000
    C16     C    0.35576   0.72536   0.05736   1.000
    C17     C    0.24930   0.59725   0.05358   1.000
    C18     C    0.82578   0.51147   0.94803   1.000
    C19     C    0.91091   0.64565   0.95637   1.000
    C20     C    0.51605   0.89743   0.90266   1.000
    C21     C    0.18551   0.98240   0.88850   1.000
    C22     C    0.09694   0.96002   0.12095   1.000
    C23     C    0.43266   0.87750   0.12539   1.000
    C24     C    0.40302   0.65723   0.86400   1.000
    C25     C    0.31557   0.87713   0.75127   1.000
    C26     C    0.64592   0.84009   0.68664   1.000
    C27     C    0.73099   0.61915   0.79745   1.000
    C28     C    0.35580   0.22537   0.44265   1.000
    C29     C    0.24933   0.09725   0.44642   1.000
    C30     C    0.82577   0.01147   0.55197   1.000
    C31     C    0.91090   0.14565   0.54363   1.000
    C32     C    0.51603   0.39745   0.59736   1.000
    C33     C    0.18548   0.48242   0.61150   1.000
    C34     C    0.09699   0.45999   0.37906   1.000
    C35     C    0.43272   0.37748   0.37463   1.000
    C36     C    0.40310   0.15723   0.63601   1.000
    C37     C    0.31554   0.37712   0.74873   1.000
    C38     C    0.64586   0.34010   0.81336   1.000
    C39     C    0.73104   0.11916   0.70255   1.000
    C40     C    0.64346   0.27426   0.94278   1.000
    C41     C    0.75052   0.40228   0.94662   1.000
    C42     C    0.17395   0.48834   0.05200   1.000
    C43     C    0.08829   0.35428   0.04360   1.000
    C44     C    0.48388   0.10258   0.09742   1.000
    C45     C    0.81454   0.01779   0.11153   1.000
    C46     C    0.90274   0.04015   0.87908   1.000
    C47     C    0.56696   0.12250   0.87466   1.000
    C48     C    0.59794   0.34282   0.13575   1.000
    C49     C    0.68547   0.12291   0.24847   1.000
    C50     C    0.35506   0.15991   0.31307   1.000
    C51     C    0.26993   0.38087   0.20228   1.000
    C52     C    0.54030   0.82281   0.53404   1.000
    C53     C    0.60061   0.89653   0.53131   1.000
    C54     C    0.47084   0.95989   0.50141   1.000
    C55     C    0.28265   0.94348   0.47379   1.000
    C56     C    0.23202   0.86851   0.47833   1.000
    C57     C    0.58463   0.58837   0.44908   1.000
    C58     C    0.77091   0.54062   0.44214   1.000
    C59     C    0.89751   0.52361   0.50311   1.000
    C60     C    0.81930   0.55293   0.57038   1.000
    C61     C    0.63112   0.59989   0.57368   1.000
    C62     C    0.85421   0.70565   0.35158   1.000
    C63     C    0.66327   0.73024   0.31248   1.000
    C64     C    0.54360   0.80274   0.32555   1.000
    C65     C    0.59395   0.67949   0.26132   1.000
    C66     C    0.10395   0.79731   0.19588   1.000
    C67     C    0.29176   0.77341   0.23709   1.000
    C68     C    0.41058   0.70054   0.22470   1.000
    C69     C    0.36081   0.82406   0.28837   1.000
    C70     C    0.45900   0.67685   0.03414   1.000
    C71     C    0.39903   0.60309   0.03145   1.000
    C72     C    0.52892   0.53979   0.00150   1.000
    C73     C    0.71700   0.55630   0.97384   1.000
    C74     C    0.76733   0.63132   0.97834   1.000
    C75     C    0.41516   0.91167   0.94912   1.000
    C76     C    0.22908   0.95949   0.94216   1.000
    C77     C    0.10248   0.97645   0.00314   1.000
    C78     C    0.18040   0.94718   0.07045   1.000
    C79     C    0.36841   0.90017   0.07377   1.000
    C80     C    0.14691   0.79444   0.85138   1.000
    C81     C    0.33775   0.76982   0.81223   1.000
    C82     C    0.45734   0.69730   0.82529   1.000
    C83     C    0.40709   0.82054   0.76105   1.000
    C84     C    0.89703   0.70268   0.69561   1.000
    C85     C    0.70919   0.72659   0.73680   1.000
    C86     C    0.59041   0.79946   0.72441   1.000
    C87     C    0.64010   0.67595   0.78810   1.000
    C88     C    0.45903   0.17686   0.46587   1.000
    C89     C    0.39906   0.10309   0.46855   1.000
    C90     C    0.52893   0.03979   0.49850   1.000
    C91     C    0.71699   0.05630   0.52617   1.000
    C92     C    0.76732   0.13132   0.52166   1.000
    C93     C    0.41515   0.41169   0.55089   1.000
    C94     C    0.22907   0.45951   0.55784   1.000
    C95     C    0.10250   0.47645   0.49687   1.000
    C96     C    0.18044   0.44717   0.42956   1.000
    C97     C    0.36845   0.40015   0.42624   1.000
    C98     C    0.14693   0.29443   0.64862   1.000
    C99     C    0.33777   0.26982   0.68777   1.000
    C100    C    0.45738   0.19730   0.67471   1.000
    C101    C    0.40707   0.32054   0.73894   1.000
    C102    C    0.89703   0.20269   0.80439   1.000
    C103    C    0.70920   0.22660   0.76320   1.000
    C104    C    0.59039   0.29947   0.77559   1.000
    C105    C    0.64013   0.17596   0.71190   1.000
    C106    C    0.54033   0.32282   0.96595   1.000
    C107    C    0.60064   0.39653   0.96869   1.000
    C108    C    0.47086   0.45989   0.99859   1.000
    C109    C    0.28265   0.44348   0.02621   1.000
    C110    C    0.23201   0.36851   0.02166   1.000
    C111    C    0.58462   0.08839   0.05090   1.000
    C112    C    0.77089   0.04063   0.05785   1.000
    C113    C    0.89752   0.02361   0.99688   1.000
    C114    C    0.81934   0.05292   0.92961   1.000
    C115    C    0.63116   0.09988   0.92630   1.000
    C116    C    0.85422   0.20564   0.14841   1.000
    C117    C    0.66328   0.23023   0.18752   1.000
    C118    C    0.54363   0.30274   0.17445   1.000
    C119    C    0.59392   0.17949   0.23868   1.000
    C120    C    0.10395   0.29732   0.30412   1.000
    C121    C    0.29176   0.27342   0.26291   1.000
    C122    C    0.41055   0.20055   0.27530   1.000
    C123    C    0.36084   0.32407   0.21163   1.000
    C124    C    0.35746   0.80866   0.50893   1.000
    C125    C    0.51569   0.61921   0.51370   1.000
    C126    C    0.08906   0.69303   0.43007   1.000
    C127    C    0.13858   0.63676   0.38011   1.000
    C128    C    0.99219   0.64366   0.33047   1.000
    C129    C    0.91188   0.73790   0.41374   1.000
    C130    C    0.87799   0.80667   0.11299   1.000
    C131    C    0.81940   0.86397   0.16126   1.000
    C132    C    0.96011   0.85893   0.21371   1.000
    C133    C    0.05688   0.76369   0.13300   1.000
    C134    C    0.64166   0.69111   0.00895   1.000
    C135    C    0.48364   0.88081   0.01377   1.000
    C136    C    0.90949   0.80686   0.93015   1.000
    C137    C    0.86040   0.86324   0.88027   1.000
    C138    C    0.00869   0.85635   0.83025   1.000
    C139    C    0.08961   0.76228   0.91364   1.000
    C140    C    0.12083   0.69327   0.61315   1.000
    C141    C    0.17980   0.63610   0.66151   1.000
    C142    C    0.03928   0.64120   0.71404   1.000
    C143    C    0.94447   0.73641   0.63282   1.000
    C144    C    0.64167   0.19111   0.49106   1.000
    C145    C    0.48366   0.38081   0.48625   1.000
    C146    C    0.90952   0.30685   0.56986   1.000
    C147    C    0.86041   0.36323   0.61974   1.000
    C148    C    0.00870   0.35634   0.66975   1.000
    C149    C    0.08965   0.26227   0.58636   1.000
    C150    C    0.12082   0.19329   0.88684   1.000
    C151    C    0.17980   0.13612   0.83848   1.000
    C152    C    0.03929   0.14122   0.78596   1.000
    C153    C    0.94447   0.23642   0.86717   1.000
    C154    C    0.35748   0.30866   0.99106   1.000
    C155    C    0.51571   0.11921   0.98627   1.000
    C156    C    0.08909   0.19302   0.06992   1.000
    C157    C    0.13859   0.13675   0.11988   1.000
    C158    C    0.99219   0.14365   0.16952   1.000
    C159    C    0.91191   0.23789   0.08626   1.000
    C160    C    0.87798   0.30668   0.38701   1.000
    C161    C    0.81940   0.36399   0.33875   1.000
    C162    C    0.96011   0.35895   0.28629   1.000
    C163    C    0.05687   0.26371   0.36701   1.000
    O164    O    0.46398   0.57144   0.01647   1.000
    O165    O    0.62296   0.54804   0.98767   1.000
    O166    O    0.49989   0.49984   0.00004   1.000
    O167    O    0.14144   0.96182   0.03679   1.000
    O168    O    0.16578   0.96797   0.97265   1.000
    O169    O    0.00000   0.00003   0.00001   1.000
    O170    O    0.69035   0.74552   0.01362   1.000
    O171    O    0.55033   0.68398   0.02155   1.000
    O172    O    0.70449   0.66122   0.99365   1.000
    O173    O    0.61134   0.84036   0.01603   1.000
    O174    O    0.42603   0.89049   0.04377   1.000
    O175    O    0.44940   0.89624   0.98145   1.000
    O176    O    0.80852   0.80329   0.06564   1.000
    O177    O    0.82427   0.80339   0.97422   1.000
    O178    O    0.25733   0.40599   0.02394   1.000
    O179    O    0.16015   0.36139   0.03263   1.000
    O180    O    0.29475   0.33858   0.00636   1.000
    O181    O    0.22830   0.46591   0.03910   1.000
    O182    O    0.37675   0.45168   0.01240   1.000
    O183    O    0.42902   0.63997   0.03280   1.000
    O184    O    0.32417   0.60017   0.04252   1.000
    O185    O    0.40738   0.70111   0.04575   1.000
    O186    O    0.67776   0.06451   0.05438   1.000
    O187    O    0.53425   0.09549   0.07416   1.000
    O188    O    0.55017   0.10380   0.01859   1.000
    O189    O    0.79272   0.02921   0.08469   1.000
    O190    O    0.83421   0.03212   0.02737   1.000
    O191    O    0.00050   0.21546   0.07809   1.000
    O192    O    0.11384   0.16488   0.09490   1.000
    O193    O    0.17385   0.19650   0.02581   1.000
    O194    O    0.27441   0.92367   0.07211   1.000
    O195    O    0.13867   0.95360   0.09570   1.000
    O196    O    0.40054   0.88883   0.09958   1.000
    O197    O    0.88307   0.22177   0.11733   1.000
    O198    O    0.96743   0.78518   0.12299   1.000
    O199    O    0.84869   0.83532   0.13713   1.000
    O200    O    0.06539   0.14020   0.14470   1.000
    O201    O    0.08042   0.78050   0.16444   1.000
    O202    O    0.57079   0.32278   0.15510   1.000
    O203    O    0.92321   0.17464   0.15897   1.000
    O204    O    0.75875   0.21794   0.16797   1.000
    O205    O    0.88975   0.86145   0.18749   1.000
    O206    O    0.60346   0.26648   0.18099   1.000
    O207    O    0.45224   0.31340   0.19304   1.000
    O208    O    0.38285   0.68022   0.20581   1.000
    O209    O    0.62860   0.20486   0.21310   1.000
    O210    O    0.03203   0.82812   0.20480   1.000
    O211    O    0.19786   0.78536   0.21649   1.000
    O212    O    0.31539   0.35247   0.20695   1.000
    O213    O    0.32630   0.29874   0.23727   1.000
    O214    O    0.35117   0.73698   0.23089   1.000
    O215    O    0.50227   0.69002   0.24301   1.000
    O216    O    0.32629   0.79873   0.26273   1.000
    O217    O    0.63970   0.15120   0.24357   1.000
    O218    O    0.50224   0.19002   0.25699   1.000
    O219    O    0.63973   0.65121   0.25642   1.000
    O220    O    0.62861   0.70487   0.28690   1.000
    O221    O    0.35116   0.23698   0.26910   1.000
    O222    O    0.19786   0.28537   0.28351   1.000
    O223    O    0.38281   0.18023   0.29419   1.000
    O224    O    0.03203   0.32813   0.29520   1.000
    O225    O    0.88976   0.36147   0.31252   1.000
    O226    O    0.31535   0.85246   0.29305   1.000
    O227    O    0.45221   0.81340   0.30696   1.000
    O228    O    0.08041   0.28051   0.33556   1.000
    O229    O    0.60344   0.76649   0.31901   1.000
    O230    O    0.75874   0.71794   0.33203   1.000
    O231    O    0.57074   0.82278   0.34489   1.000
    O232    O    0.92320   0.67465   0.34103   1.000
    O233    O    0.06538   0.64021   0.35529   1.000
    O234    O    0.84869   0.33533   0.36288   1.000
    O235    O    0.88305   0.72178   0.38266   1.000
    O236    O    0.96743   0.28519   0.37701   1.000
    O237    O    0.40059   0.38882   0.40044   1.000
    O238    O    0.13872   0.45358   0.40431   1.000
    O239    O    0.11382   0.66490   0.40509   1.000
    O240    O    0.80852   0.30330   0.43437   1.000
    O241    O    0.79275   0.52919   0.41530   1.000
    O242    O    0.53427   0.59547   0.42583   1.000
    O243    O    0.00047   0.71547   0.42191   1.000
    O244    O    0.27445   0.42366   0.42790   1.000
    O245    O    0.42606   0.39048   0.45625   1.000
    O246    O    0.14147   0.46181   0.46321   1.000
    O247    O    0.17383   0.69650   0.47418   1.000
    O248    O    0.67777   0.56449   0.44561   1.000
    O249    O    0.83421   0.53211   0.47262   1.000
    O250    O    0.40741   0.20111   0.45426   1.000
    O251    O    0.32420   0.10017   0.45749   1.000
    O252    O    0.22831   0.96591   0.46089   1.000
    O253    O    0.55016   0.60379   0.48139   1.000
    O254    O    0.16016   0.86140   0.46736   1.000
    O255    O    0.42904   0.13997   0.46721   1.000
    O256    O    0.55035   0.18398   0.47846   1.000
    O257    O    0.46400   0.07144   0.48353   1.000
    O258    O    0.25733   0.90599   0.47606   1.000
    O259    O    0.37675   0.95168   0.48760   1.000
    O260    O    0.29474   0.83858   0.49363   1.000
    O261    O    0.61137   0.34037   0.48399   1.000
    O262    O    0.69037   0.24552   0.48640   1.000
    O263    O    0.82429   0.30338   0.52579   1.000
    O264    O    0.44941   0.39625   0.51857   1.000
    O265    O    0.70450   0.16122   0.50636   1.000
    O266    O    0.00000   0.50003   0.49999   1.000
    O267    O    0.16578   0.46798   0.52735   1.000
    O268    O    0.49989   0.99984   0.49996   1.000
    O269    O    0.62296   0.04804   0.51233   1.000
    O270    O    0.53573   0.92821   0.51636   1.000
    O271    O    0.85840   0.53827   0.53675   1.000
    O272    O    0.30803   0.75432   0.51361   1.000
    O273    O    0.44888   0.81574   0.52148   1.000
    O274    O    0.38714   0.65959   0.51600   1.000
    O275    O    0.57340   0.60955   0.54369   1.000
    O276    O    0.18971   0.69662   0.56572   1.000
    O277    O    0.74216   0.09381   0.52391   1.000
    O278    O    0.83911   0.13848   0.53265   1.000
    O279    O    0.77138   0.03388   0.53907   1.000
    O280    O    0.57045   0.85967   0.53268   1.000
    O281    O    0.67555   0.89940   0.54234   1.000
    O282    O    0.59186   0.79853   0.54563   1.000
    O283    O    0.32211   0.43560   0.55436   1.000
    O284    O    0.46559   0.40457   0.57412   1.000
    O285    O    0.20727   0.47096   0.58467   1.000
    O286    O    0.99958   0.28456   0.57811   1.000
    O287    O    0.88496   0.33504   0.59480   1.000
    O288    O    0.72521   0.57641   0.57203   1.000
    O289    O    0.86099   0.54655   0.59565   1.000
    O290    O    0.59901   0.61120   0.59950   1.000
    O291    O    0.11829   0.27835   0.61749   1.000
    O292    O    0.03265   0.71484   0.62299   1.000
    O293    O    0.15031   0.66468   0.63733   1.000
    O294    O    0.93455   0.35978   0.64475   1.000
    O295    O    0.92075   0.71954   0.66422   1.000
    O296    O    0.43024   0.17727   0.65536   1.000
    O297    O    0.07781   0.32538   0.65918   1.000
    O298    O    0.24235   0.28212   0.66819   1.000
    O299    O    0.10954   0.63865   0.68777   1.000
    O300    O    0.39758   0.23356   0.68124   1.000
    O301    O    0.54876   0.18663   0.69331   1.000
    O302    O    0.61817   0.81978   0.70552   1.000
    O303    O    0.37242   0.29518   0.71336   1.000
    O304    O    0.96816   0.67194   0.70482   1.000
    O305    O    0.80311   0.71463   0.71621   1.000
    O306    O    0.68559   0.14756   0.70723   1.000
    O307    O    0.67467   0.20128   0.73755   1.000
    O308    O    0.64980   0.76302   0.73061   1.000
    O309    O    0.49875   0.81000   0.74273   1.000
    O310    O    0.67465   0.70127   0.76245   1.000
    O311    O    0.36131   0.34883   0.74384   1.000
    O312    O    0.49873   0.31001   0.75726   1.000
    O313    O    0.36133   0.84884   0.75616   1.000
    O314    O    0.37242   0.79518   0.78664   1.000
    O315    O    0.64979   0.26303   0.76939   1.000
    O316    O    0.80311   0.21464   0.78379   1.000
    O317    O    0.61813   0.31978   0.79447   1.000
    O318    O    0.96816   0.17195   0.79517   1.000
    O319    O    0.10955   0.13867   0.81222   1.000
    O320    O    0.68555   0.64755   0.79277   1.000
    O321    O    0.54872   0.68663   0.80669   1.000
    O322    O    0.92075   0.21956   0.83578   1.000
    O323    O    0.39755   0.73356   0.81876   1.000
    O324    O    0.24233   0.78213   0.83181   1.000
    O325    O    0.43018   0.67726   0.84464   1.000
    O326    O    0.07780   0.82539   0.84082   1.000
    O327    O    0.93455   0.85979   0.85526   1.000
    O328    O    0.15031   0.16470   0.86266   1.000
    O329    O    0.11826   0.77836   0.88251   1.000
    O330    O    0.03264   0.21485   0.87701   1.000
    O331    O    0.59906   0.11119   0.90048   1.000
    O332    O    0.86104   0.04653   0.90434   1.000
    O333    O    0.88495   0.83505   0.90521   1.000
    O334    O    0.18972   0.19663   0.93427   1.000
    O335    O    0.20730   0.97094   0.91533   1.000
    O336    O    0.46560   0.90455   0.92589   1.000
    O337    O    0.99955   0.78457   0.92190   1.000
    O338    O    0.72525   0.07640   0.92795   1.000
    O339    O    0.57344   0.10954   0.95629   1.000
    O340    O    0.85843   0.03826   0.96325   1.000
    O341    O    0.32212   0.93558   0.94564   1.000
    O342    O    0.59190   0.29854   0.95436   1.000
    O343    O    0.67558   0.39941   0.95765   1.000
    O344    O    0.77139   0.53389   0.96093   1.000
    O345    O    0.83912   0.63849   0.96736   1.000
    O346    O    0.57048   0.35967   0.96732   1.000
    O347    O    0.44891   0.31574   0.97851   1.000
    O348    O    0.53575   0.42821   0.98364   1.000
    O349    O    0.74216   0.59381   0.97609   1.000
    O350    O    0.38717   0.15960   0.98398   1.000
    O351    O    0.30805   0.25432   0.98638   1.000
loop_
    _geom_bond_atom_site_label_1
    _geom_bond_atom_site_label_2
    _geom_bond_distance
    _geom_bond_site_symmetry_2
    _ccdc_geom_bond_type
    C72    O164      0.70184      .   S
    C71    O164      0.70184      .   S
    C72    O165      0.70464  1_554   S
    C73    O165      0.70464      .   S
    C72    O166      0.74362      .   S
    C108   O166      0.74362  1_556   S
    C77    O167      0.70315      .   S
    C78    O167      0.70315      .   S
    C77    O168      0.70210  1_554   S
    C76    O168      0.70210      .   S
    C77    O169      0.74122  1_565   S
    C113   O169      0.74122  1_656   S
    C134   O170      1.04078      .   S
    C1     O170      1.04078      .   S
    C134   O171      0.67399      .   S
    C70    O171      0.67399      .   S
    C134   O172      0.67645  1_554   S
    C74    O172      0.67645      .   S
    C135   O173      1.01720      .   S
    C1     O173      1.01720      .   S
    C135   O174      0.67739      .   S
    C79    O174      0.67739      .   S
    C135   O175      0.67690  1_554   S
    C75    O175      0.67690      .   S
    C1     O176      0.98968      .   S
    C130   O176      0.98968      .   S
    C1     O177      0.99318  1_554   S
    C136   O177      0.99318      .   S
    C110   O178      0.69369      .   S
    C109   O178      0.69369      .   S
    C110   O179      0.54586      .   S
    C43    O179      0.54586      .   S
    C110   O180      0.67645      .   S
    C154   O180      0.67645  1_556   S
    C109   O181      0.54401      .   S
    C42    O181      0.54401      .   S
    C109   O182      0.70462      .   S
    C108   O182      0.70462  1_556   S
    C71    O183      0.69501      .   S
    C70    O183      0.69501      .   S
    C71    O184      0.54389      .   S
    C17    O184      0.54389      .   S
    C70    O185      0.54501      .   S
    C16    O185      0.54501      .   S
    C111   O186      0.69345      .   S
    C112   O186      0.69345      .   S
    C111   O187      0.54493      .   S
    C44    O187      0.54493      .   S
    C111   O188      0.67702      .   S
    C155   O188      0.67702  1_556   S
    C112   O189      0.54320      .   S
    C45    O189      0.54320      .   S
    C112   O190      0.70221      .   S
    C113   O190      0.70221  1_556   S
    C156   O191      0.67156      .   S
    C159   O191      0.67156  1_655   S
    C156   O192      0.67212      .   S
    C157   O192      0.67212      .   S
    C156   O193      0.99215      .   S
    C3     O193      0.99215  1_556   S
    C78    O194      0.69286      .   S
    C79    O194      0.69286      .   S
    C78    O195      0.54318      .   S
    C22    O195      0.54318      .   S
    C79    O196      0.54467      .   S
    C23    O196      0.54467      .   S
    C159   O197      0.67503      .   S
    C116   O197      0.67503      .   S
    C130   O198      0.67718      .   S
    C133   O198      0.67718  1_455   S
    C130   O199      0.67270      .   S
    C131   O199      0.67270      .   S
    C157   O200      0.66135      .   S
    C158   O200      0.66135  1_655   S
    C133   O201      0.67506      .   S
    C66    O201      0.67506      .   S
    C48    O202      0.54464      .   S
    C118   O202      0.54464      .   S
    C116   O203      0.68055      .   S
    C158   O203      0.68055      .   S
    C116   O204      0.73081      .   S
    C117   O204      0.73081      .   S
    C131   O205      0.66682      .   S
    C132   O205      0.66682      .   S
    C118   O206      0.70228      .   S
    C117   O206      0.70228      .   S
    C118   O207      0.69547      .   S
    C123   O207      0.69547      .   S
    C14    O208      0.54411      .   S
    C68    O208      0.54411      .   S
    C117   O209      0.70347      .   S
    C119   O209      0.70347      .   S
    C66    O210      0.68153      .   S
    C132   O210      0.68153  1_655   S
    C66    O211      0.73114      .   S
    C67    O211      0.73114      .   S
    C51    O212      0.54485      .   S
    C123   O212      0.54485      .   S
    C123   O213      0.70330      .   S
    C121   O213      0.70330      .   S
    C68    O214      0.70263      .   S
    C67    O214      0.70263      .   S
    C68    O215      0.69424      .   S
    C65    O215      0.69424      .   S
    C67    O216      0.70331      .   S
    C69    O216      0.70331      .   S
    C119   O217      0.54479      .   S
    C49    O217      0.54479      .   S
    C119   O218      0.69424      .   S
    C122   O218      0.69424      .   S
    C13    O219      0.54479      .   S
    C65    O219      0.54479      .   S
    C65    O220      0.70347      .   S
    C63    O220      0.70347      .   S
    C121   O221      0.70263      .   S
    C122   O221      0.70263      .   S
    C121   O222      0.73113      .   S
    C120   O222      0.73113      .   S
    C122   O223      0.54411      .   S
    C50    O223      0.54411      .   S
    C162   O224      0.68152  1_655   S
    C120   O224      0.68152      .   S
    C162   O225      0.66683      .   S
    C161   O225      0.66683      .   S
    C69    O226      0.54485      .   S
    C15    O226      0.54485      .   S
    C69    O227      0.69547      .   S
    C64    O227      0.69547      .   S
    C120   O228      0.67506      .   S
    C163   O228      0.67506      .   S
    C63    O229      0.70228      .   S
    C64    O229      0.70228      .   S
    C63    O230      0.73082      .   S
    C62    O230      0.73082      .   S
    C64    O231      0.54464      .   S
    C12    O231      0.54464      .   S
    C128   O232      0.68056      .   S
    C62    O232      0.68056      .   S
    C128   O233      0.66136  1_655   S
    C127   O233      0.66136      .   S
    C161   O234      0.67270      .   S
    C160   O234      0.67270      .   S
    C62    O235      0.67503      .   S
    C129   O235      0.67503      .   S
    C163   O236      0.67717  1_455   S
    C160   O236      0.67717      .   S
    C35    O237      0.54467      .   S
    C97    O237      0.54467      .   S
    C34    O238      0.54318      .   S
    C96    O238      0.54318      .   S
    C127   O239      0.67212      .   S
    C126   O239      0.67212      .   S
    C160   O240      0.98965      .   S
    C2     O240      0.98965      .   S
    C9     O241      0.54320      .   S
    C58    O241      0.54320      .   S
    C8     O242      0.54493      .   S
    C57    O242      0.54493      .   S
    C129   O243      0.67156  1_655   S
    C126   O243      0.67156      .   S
    C97    O244      0.69285      .   S
    C96    O244      0.69285      .   S
    C97    O245      0.67738      .   S
    C145   O245      0.67738      .   S
    C96    O246      0.70316      .   S
    C95    O246      0.70316      .   S
    C126   O247      0.99216      .   S
    C0     O247      0.99216      .   S
    C58    O248      0.69345      .   S
    C57    O248      0.69345      .   S
    C58    O249      0.70219      .   S
    C59    O249      0.70219      .   S
    C28    O250      0.54501      .   S
    C88    O250      0.54501      .   S
    C29    O251      0.54389      .   S
    C89    O251      0.54389      .   S
    C6     O252      0.54401      .   S
    C55    O252      0.54401      .   S
    C57    O253      0.67703      .   S
    C125   O253      0.67703      .   S
    C7     O254      0.54586      .   S
    C56    O254      0.54586      .   S
    C88    O255      0.69502      .   S
    C89    O255      0.69502      .   S
    C88    O256      0.67399      .   S
    C144   O256      0.67399      .   S
    C89    O257      0.70184      .   S
    C90    O257      0.70184      .   S
    C55    O258      0.69369      .   S
    C56    O258      0.69369      .   S
    C55    O259      0.70458      .   S
    C54    O259      0.70458      .   S
    C56    O260      0.67643      .   S
    C124   O260      0.67643      .   S
    C2     O261      1.01720      .   S
    C145   O261      1.01720      .   S
    C2     O262      1.04076      .   S
    C144   O262      1.04076      .   S
    C2     O263      0.99318      .   S
    C146   O263      0.99318      .   S
    C145   O264      0.67691      .   S
    C93    O264      0.67691      .   S
    C144   O265      0.67644      .   S
    C92    O265      0.67644      .   S
    C95    O266      0.74128      .   S
    C59    O266      0.74128  1_655   S
    C95    O267      0.70208      .   S
    C94    O267      0.70208      .   S
    C90    O268      0.74367  1_545   S
    C54    O268      0.74367      .   S
    C90    O269      0.70460      .   S
    C91    O269      0.70460      .   S
    C54    O270      0.70185      .   S
    C53    O270      0.70185      .   S
    C59    O271      0.70327      .   S
    C60    O271      0.70327      .   S
    C124   O272      1.04185      .   S
    C0     O272      1.04185      .   S
    C124   O273      0.67404      .   S
    C52    O273      0.67404      .   S
    C125   O274      1.02073      .   S
    C0     O274      1.02073      .   S
    C125   O275      0.67752      .   S
    C61    O275      0.67752      .   S
    C0     O276      0.98898      .   S
    C140   O276      0.98898      .   S
    C92    O277      0.69375      .   S
    C91    O277      0.69375      .   S
    C92    O278      0.54587      .   S
    C31    O278      0.54587      .   S
    C91    O279      0.54403      .   S
    C30    O279      0.54403      .   S
    C53    O280      0.69512      .   S
    C52    O280      0.69512      .   S
    C53    O281      0.54392      .   S
    C5     O281      0.54392      .   S
    C52    O282      0.54499      .   S
    C4     O282      0.54499      .   S
    C93    O283      0.69320      .   S
    C94    O283      0.69320      .   S
    C93    O284      0.54493      .   S
    C32    O284      0.54493      .   S
    C94    O285      0.54318      .   S
    C33    O285      0.54318      .   S
    C146   O286      0.67848      .   S
    C149   O286      0.67848  1_455   S
    C146   O287      0.67210      .   S
    C147   O287      0.67210      .   S
    C60    O288      0.69309      .   S
    C61    O288      0.69309      .   S
    C60    O289      0.54322      .   S
    C10    O289      0.54322      .   S
    C61    O290      0.54469      .   S
    C11    O290      0.54469      .   S
    C149   O291      0.67500      .   S
    C98    O291      0.67500      .   S
    C140   O292      0.67031      .   S
    C143   O292      0.67031  1_655   S
    C140   O293      0.67269      .   S
    C141   O293      0.67269      .   S
    C147   O294      0.66824      .   S
    C148   O294      0.66824  1_455   S
    C143   O295      0.67507      .   S
    C84    O295      0.67507      .   S
    C36    O296      0.54465      .   S
    C100   O296      0.54465      .   S
    C98    O297      0.68058      .   S
    C148   O297      0.68058      .   S
    C98    O298      0.73079      .   S
    C99    O298      0.73079      .   S
    C141   O299      0.66682      .   S
    C142   O299      0.66682      .   S
    C100   O300      0.70228      .   S
    C99    O300      0.70228      .   S
    C100   O301      0.69547      .   S
    C105   O301      0.69547      .   S
    C26    O302      0.54410      .   S
    C86    O302      0.54410      .   S
    C99    O303      0.70344      .   S
    C101   O303      0.70344      .   S
    C84    O304      0.67897      .   S
    C142   O304      0.67897  1_455   S
    C84    O305      0.73114      .   S
    C85    O305      0.73114      .   S
    C39    O306      0.54485      .   S
    C105   O306      0.54485      .   S
    C105   O307      0.70333      .   S
    C103   O307      0.70333      .   S
    C86    O308      0.70263      .   S
    C85    O308      0.70263      .   S
    C86    O309      0.69423      .   S
    C83    O309      0.69423      .   S
    C85    O310      0.70332      .   S
    C87    O310      0.70332      .   S
    C101   O311      0.54479      .   S
    C37    O311      0.54479      .   S
    C101   O312      0.69423      .   S
    C104   O312      0.69423      .   S
    C25    O313      0.54480      .   S
    C83    O313      0.54480      .   S
    C83    O314      0.70344      .   S
    C81    O314      0.70344      .   S
    C103   O315      0.70264      .   S
    C104   O315      0.70264      .   S
    C103   O316      0.73115      .   S
    C102   O316      0.73115      .   S
    C104   O317      0.54410      .   S
    C38    O317      0.54410      .   S
    C152   O318      0.67896  1_455   S
    C102   O318      0.67896      .   S
    C152   O319      0.66682      .   S
    C151   O319      0.66682      .   S
    C87    O320      0.54485      .   S
    C27    O320      0.54485      .   S
    C87    O321      0.69547      .   S
    C82    O321      0.69547      .   S
    C102   O322      0.67507      .   S
    C153   O322      0.67507      .   S
    C81    O323      0.70227      .   S
    C82    O323      0.70227      .   S
    C81    O324      0.73078      .   S
    C80    O324      0.73078      .   S
    C82    O325      0.54465      .   S
    C24    O325      0.54465      .   S
    C138   O326      0.68057      .   S
    C80    O326      0.68057      .   S
    C138   O327      0.66824  1_455   S
    C137   O327      0.66824      .   S
    C151   O328      0.67269      .   S
    C150   O328      0.67269      .   S
    C80    O329      0.67500      .   S
    C139   O329      0.67500      .   S
    C153   O330      0.67030  1_655   S
    C150   O330      0.67030      .   S
    C47    O331      0.54469      .   S
    C115   O331      0.54469      .   S
    C46    O332      0.54322      .   S
    C114   O332      0.54322      .   S
    C137   O333      0.67211      .   S
    C136   O333      0.67211      .   S
    C150   O334      0.98902      .   S
    C3     O334      0.98902      .   S
    C21    O335      0.54318      .   S
    C76    O335      0.54318      .   S
    C20    O336      0.54493      .   S
    C75    O336      0.54493      .   S
    C139   O337      0.67847  1_455   S
    C136   O337      0.67847      .   S
    C115   O338      0.69309      .   S
    C114   O338      0.69309      .   S
    C115   O339      0.67752      .   S
    C155   O339      0.67752      .   S
    C114   O340      0.70327      .   S
    C113   O340      0.70327      .   S
    C76    O341      0.69319      .   S
    C75    O341      0.69319      .   S
    C40    O342      0.54499      .   S
    C106   O342      0.54499      .   S
    C41    O343      0.54391      .   S
    C107   O343      0.54391      .   S
    C18    O344      0.54404      .   S
    C73    O344      0.54404      .   S
    C19    O345      0.54587      .   S
    C74    O345      0.54587      .   S
    C106   O346      0.69511      .   S
    C107   O346      0.69511      .   S
    C106   O347      0.67405      .   S
    C154   O347      0.67405      .   S
    C107   O348      0.70185      .   S
    C108   O348      0.70185      .   S
    C73    O349      0.69375      .   S
    C74    O349      0.69375      .   S
    C3     O350      1.02074      .   S
    C155   O350      1.02074      .   S
    C3     O351      1.04186      .   S
    C154   O351      1.04186      .   S
