# CIF file generated by openbabel 2.4.90, see http://openbabel.sf.net
data_I
_chemical_name_common ''
_cell_length_a 16.158
_cell_length_b 18.104
_cell_length_c 18.807
_cell_angle_alpha 90
_cell_angle_beta 90
_cell_angle_gamma 92.615
_space_group_name_H-M_alt 'P 1'
_space_group_name_Hall 'P 1'
loop_
    _symmetry_equiv_pos_as_xyz
    x,y,z
loop_
    _atom_site_label
    _atom_site_type_symbol
    _atom_site_fract_x
    _atom_site_fract_y
    _atom_site_fract_z
    _atom_site_occupancy
    Zn0     Zn   0.82975   0.37721   0.50379   1.000
    Zn1     Zn   0.66517   0.86314   0.00033   1.000
    Zn2     Zn   0.84069   0.88855   0.00000   1.000
    Zn3     Zn   0.36395   0.15953   0.00000   1.000
    Zn4     Zn   0.18843   0.13412   0.00000   1.000
    Zn5     Zn   0.37428   0.67079   0.50400   1.000
    Zn6     Zn   0.19937   0.64546   0.50378   1.000
    Zn7     Zn   0.65484   0.35188   0.50350   1.000
loop_
    _geom_bond_atom_site_label_1
    _geom_bond_atom_site_label_2
    _geom_bond_distance
    _geom_bond_site_symmetry_2
    _ccdc_geom_bond_type
    Zn7    Zn0       2.84246      .   S
    Zn1    Zn2       2.85237      .   S
    Zn3    Zn4       2.85236      .   S
    Zn5    Zn6       2.84246      .   S
