# CIF file generated by openbabel 2.4.90, see http://openbabel.sf.net
data_I
_chemical_name_common ''
_cell_length_a 16.158
_cell_length_b 18.104
_cell_length_c 18.807
_cell_angle_alpha 90
_cell_angle_beta 90
_cell_angle_gamma 92.615
_space_group_name_H-M_alt 'P 1'
_space_group_name_Hall 'P 1'
loop_
    _symmetry_equiv_pos_as_xyz
    x,y,z
loop_
    _atom_site_label
    _atom_site_type_symbol
    _atom_site_fract_x
    _atom_site_fract_y
    _atom_site_fract_z
    _atom_site_occupancy
    N0      N    0.74638   0.63199   0.26179   1.000
    N1      N    0.74882   0.60756   0.76825   1.000
    N2      N    0.28953   0.89779   0.76556   1.000
    N3      N    0.77754   0.14184   0.01029   1.000
    N4      N    0.28029   0.41511   0.23925   1.000
    N5      N    0.24092   0.36956   0.51081   1.000
    N6      N    0.25068   0.88083   0.99671   1.000
    N7      N    0.28515   0.92027   0.26431   1.000
    N8      N    0.74396   0.09910   0.74307   1.000
    N9      N    0.73959   0.12379   0.24200   1.000
    N10     N    0.28274   0.39068   0.74575   1.000
    N11     N    0.78818   0.65311   0.49673   1.000
    Zr12    Zr   0.28682   0.65813   0.50389   1.000
    O13     O    0.44989   0.66044   0.50128   1.000
    O14     O    0.12436   0.65257   0.50207   1.000
    Zr15    Zr   0.74229   0.36455   0.50365   1.000
    O16     O    0.57923   0.36224   0.50625   1.000
    O17     O    0.90475   0.37010   0.50547   1.000
    Zr18    Zr   0.75293   0.87585   0.00016   1.000
    O19     O    0.58964   0.87352   0.99930   1.000
    O20     O    0.91517   0.88139   0.99925   1.000
    Zr21    Zr   0.27619   0.14683   0.00000   1.000
    O22     O    0.43925   0.14915   0.00337   1.000
    O23     O    0.11372   0.14128   0.00257   1.000
    O24     O    0.74367   0.43438   0.58029   1.000
    O25     O    0.74342   0.28742   0.57224   1.000
    O26     O    0.74226   0.29558   0.42777   1.000
    O27     O    0.74242   0.44231   0.43448   1.000
    O28     O    0.28686   0.72682   0.57977   1.000
    O29     O    0.28545   0.58829   0.42723   1.000
    O30     O    0.28570   0.73443   0.43526   1.000
    O31     O    0.28670   0.58036   0.57306   1.000
    O32     O    0.28045   0.07367   0.93361   1.000
    O33     O    0.27648   0.22466   0.06853   1.000
    O34     O    0.75264   0.79802   0.93439   1.000
    O35     O    0.27866   0.08110   0.07655   1.000
    O36     O    0.75046   0.94075   0.92634   1.000
    O37     O    0.74867   0.94873   0.06933   1.000
    O38     O    0.27721   0.21657   0.92690   1.000
    O39     O    0.75191   0.80610   0.07603   1.000
loop_
    _geom_bond_atom_site_label_1
    _geom_bond_atom_site_label_2
    _geom_bond_distance
    _geom_bond_site_symmetry_2
    _ccdc_geom_bond_type
    Zr12   O13       2.63364      .   S
    N11    O13       5.47442      .   S
    Zr12   O14       2.62269      .   S
    N11    O14       5.43339  1_655   S
    Zr15   O16       2.63371      .   S
    N5     O16       5.47463      .   S
    Zr15   O17       2.62262      .   S
    N5     O17       5.43319  1_455   S
    Zr18   O19       2.63681  1_554   S
    N6     O19       5.48481      .   S
    Zr18   O20       2.61890  1_554   S
    N6     O20       5.42187  1_455   S
    Zr21   O22       2.63389      .   S
    N3     O22       5.47522      .   S
    Zr21   O23       2.62292      .   S
    N3     O23       5.43452  1_655   S
    Zr15   O24       1.91690      .   S
    N1     O24       4.72307      .   S
    Zr15   O25       1.90166      .   S
    N8     O25       4.68495      .   S
    Zr15   O26       1.89610      .   S
    N9     O26       4.67642      .   S
    Zr15   O27       1.91669      .   S
    N0     O27       4.72482      .   S
    Zr12   O28       1.89298      .   S
    N2     O28       4.66672      .   S
    Zr12   O29       1.91699      .   S
    N4     O29       4.72352      .   S
    Zr12   O30       1.89119      .   S
    N7     O30       4.65409      .   S
    Zr12   O31       1.91677      .   S
    N10    O31       4.72486      .   S
    N2     O32       4.49350  1_565   S
    Zr21   O32       1.82382  1_554   S
    N4     O33       4.70980      .   S
    Zr21   O33       1.90943      .   S
    N1     O34       4.65159      .   S
    Zr18   O34       1.87480  1_554   S
    N7     O35       4.58092  1_565   S
    Zr21   O35       1.86938      .   S
    N8     O36       4.48749  1_545   S
    Zr18   O36       1.82048  1_554   S
    N9     O37       4.54467  1_545   S
    Zr18   O37       1.85632      .   S
    Zr21   O38       1.86619  1_554   S
    N10    O38       4.63952      .   S
    N0     O39       4.70354      .   S
    Zr18   O39       1.90490      .   S
