# CIF file generated by openbabel 2.4.90, see http://openbabel.sf.net
data_I
_chemical_name_common ''
_cell_length_a 16.158
_cell_length_b 18.104
_cell_length_c 18.807
_cell_angle_alpha 90
_cell_angle_beta 90
_cell_angle_gamma 92.615
_space_group_name_H-M_alt 'P 1'
_space_group_name_Hall 'P 1'
loop_
    _symmetry_equiv_pos_as_xyz
    x,y,z
loop_
    _atom_site_label
    _atom_site_type_symbol
    _atom_site_fract_x
    _atom_site_fract_y
    _atom_site_fract_z
    _atom_site_occupancy
    N0      N    0.74638   0.63199   0.26179   1.000
    N1      N    0.74882   0.60756   0.76825   1.000
    N2      N    0.28953   0.89779   0.76556   1.000
    N3      N    0.77754   0.14184   0.01029   1.000
    N4      N    0.28029   0.41511   0.23925   1.000
    N5      N    0.24092   0.36956   0.51081   1.000
    N6      N    0.25068   0.88083   0.99671   1.000
    N7      N    0.28515   0.92027   0.26431   1.000
    N8      N    0.74396   0.09910   0.74307   1.000
    N9      N    0.73959   0.12379   0.24200   1.000
    N10     N    0.28274   0.39068   0.74575   1.000
    N11     N    0.78818   0.65311   0.49673   1.000
    Zr12    Zr   0.28682   0.65813   0.50389   1.000
    O13     O    0.30611   0.58409   0.57405   1.000
    O14     O    0.44989   0.66044   0.50128   1.000
    O15     O    0.30534   0.73640   0.43430   1.000
    O16     O    0.30624   0.73074   0.57896   1.000
    O17     O    0.30506   0.58995   0.42834   1.000
    O18     O    0.12436   0.65257   0.50207   1.000
    O19     O    0.26748   0.72290   0.58059   1.000
    O20     O    0.26728   0.57664   0.57208   1.000
    O21     O    0.26605   0.73246   0.43623   1.000
    O22     O    0.26583   0.58663   0.42612   1.000
    Zr23    Zr   0.74229   0.36455   0.50365   1.000
    O24     O    0.57923   0.36224   0.50625   1.000
    O25     O    0.72405   0.43273   0.57918   1.000
    O26     O    0.72377   0.28545   0.57320   1.000
    O27     O    0.72287   0.29166   0.42858   1.000
    O28     O    0.72300   0.43858   0.43349   1.000
    O29     O    0.76329   0.43604   0.58141   1.000
    O30     O    0.90475   0.37010   0.50547   1.000
    O31     O    0.76306   0.28939   0.57127   1.000
    O32     O    0.76164   0.29949   0.42696   1.000
    O33     O    0.76183   0.44603   0.43547   1.000
    Zr34    Zr   0.75293   0.87585   0.00016   1.000
    O35     O    0.58964   0.87352   0.99930   1.000
    O36     O    0.73296   0.79604   0.93344   1.000
    O37     O    0.73080   0.93909   0.92747   1.000
    O38     O    0.72922   0.94500   0.07032   1.000
    O39     O    0.73249   0.80218   0.07523   1.000
    O40     O    0.91517   0.88139   0.99925   1.000
    O41     O    0.77232   0.79999   0.93535   1.000
    O42     O    0.77011   0.94241   0.92522   1.000
    O43     O    0.76812   0.95246   0.06833   1.000
    O44     O    0.77133   0.81002   0.07683   1.000
    Zr45    Zr   0.27619   0.14683   0.00000   1.000
    O46     O    0.43925   0.14915   0.00337   1.000
    O47     O    0.29990   0.07740   0.93264   1.000
    O48     O    0.29832   0.08276   0.07545   1.000
    O49     O    0.29616   0.22663   0.06951   1.000
    O50     O    0.29663   0.22049   0.92772   1.000
    O51     O    0.11372   0.14128   0.00257   1.000
    O52     O    0.25779   0.21265   0.92608   1.000
    O53     O    0.26099   0.06994   0.93458   1.000
    O54     O    0.25901   0.07944   0.07765   1.000
    O55     O    0.25679   0.22269   0.06755   1.000
loop_
    _geom_bond_atom_site_label_1
    _geom_bond_atom_site_label_2
    _geom_bond_distance
    _geom_bond_site_symmetry_2
    _ccdc_geom_bond_type
    Zr12   O13       1.91643      .   S
    N10    O13       4.76551      .   S
    Zr12   O14       2.63364      .   S
    N11    O14       5.47442      .   S
    Zr12   O15       1.94212      .   S
    N7     O15       4.63769      .   S
    Zr12   O16       1.94482      .   S
    N2     O16       4.64855      .   S
    Zr12   O17       1.91368      .   S
    N4     O17       4.76555      .   S
    Zr12   O18       2.62269      .   S
    N11    O18       5.43339  1_655   S
    Zr12   O19       1.89395      .   S
    N2     O19       4.70639      .   S
    Zr12   O20       1.96928      .   S
    N10    O20       4.70546      .   S
    Zr12   O21       1.89315      .   S
    N7     O21       4.69208      .   S
    Zr12   O22       1.97216      .   S
    N4     O22       4.70264      .   S
    Zr23   O24       2.63371      .   S
    N5     O24       5.47463      .   S
    Zr23   O25       1.91353      .   S
    N1     O25       4.76515      .   S
    Zr23   O26       1.95241      .   S
    N8     O26       4.66853      .   S
    Zr23   O27       1.94807      .   S
    N9     O27       4.65805      .   S
    Zr23   O28       1.91639      .   S
    N0     O28       4.76542      .   S
    Zr23   O29       1.97213      .   S
    N1     O29       4.70213      .   S
    Zr23   O30       2.62262      .   S
    N5     O30       5.43319  1_455   S
    Zr23   O31       1.90351      .   S
    N8     O31       4.72282      .   S
    Zr23   O32       1.89686      .   S
    N9     O32       4.71625      .   S
    Zr23   O33       1.96916      .   S
    N0     O33       4.70546      .   S
    Zr34   O35       2.63681  1_554   S
    N6     O35       5.48481      .   S
    Zr34   O36       1.92970  1_554   S
    N1     O36       4.63050      .   S
    Zr34   O37       1.82908  1_554   S
    N8     O37       4.51746  1_545   S
    Zr34   O38       1.87052      .   S
    N9     O38       4.56948  1_545   S
    Zr34   O39       1.95980      .   S
    N0     O39       4.68159      .   S
    Zr34   O40       2.61890  1_554   S
    N6     O40       5.42187  1_455   S
    Zr34   O41       1.87336  1_554   S
    N1     O41       4.69430      .   S
    Zr34   O42       1.86695  1_554   S
    N8     O42       4.47999  1_545   S
    Zr34   O43       1.89646      .   S
    N9     O43       4.54219  1_545   S
    Zr34   O44       1.90260      .   S
    N0     O44       4.74686      .   S
    Zr45   O46       2.63389      .   S
    N3     O46       5.47522      .   S
    Zr45   O47       1.83727  1_554   S
    N2     O47       4.51946  1_565   S
    Zr45   O48       1.87734      .   S
    N7     O48       4.61052  1_565   S
    Zr45   O49       1.96409      .   S
    N4     O49       4.68837      .   S
    Zr45   O50       1.92233  1_554   S
    N10    O50       4.61728      .   S
    Zr45   O51       2.62292      .   S
    N3     O51       5.43452  1_655   S
    Zr45   O52       1.86371  1_554   S
    N10    O52       4.68343      .   S
    Zr45   O53       1.86564  1_554   S
    N2     O53       4.49011  1_565   S
    Zr45   O54       1.91504      .   S
    N7     O54       4.57334  1_565   S
    Zr45   O55       1.90726      .   S
    N4     O55       4.75257      .   S
