# CIF file generated by openbabel 2.4.90, see http://openbabel.sf.net
data_I
_chemical_name_common ''
_cell_length_a 21.644
_cell_length_b 13.83
_cell_length_c 13.69
_cell_angle_alpha 90.487
_cell_angle_beta 89.967
_cell_angle_gamma 90.27
_space_group_name_H-M_alt 'P 1'
_space_group_name_Hall 'P 1'
loop_
    _symmetry_equiv_pos_as_xyz
    x,y,z
loop_
    _atom_site_label
    _atom_site_type_symbol
    _atom_site_fract_x
    _atom_site_fract_y
    _atom_site_fract_z
    _atom_site_occupancy
    H0      H    0.25745   0.47048   0.76930   1.000
    H1      H    0.75775   0.47086   0.76952   1.000
    H2      H    0.25146   0.67980   0.53601   1.000
    H3      H    0.75106   0.67956   0.53573   1.000
    H4      H    0.34274   0.59833   0.46363   1.000
    H5      H    0.84206   0.59770   0.46277   1.000
    H6      H    0.38830   0.45512   0.54739   1.000
    H7      H    0.88781   0.45467   0.54649   1.000
    H8      H    0.20120   0.75686   0.64480   1.000
    H9      H    0.70045   0.75687   0.64433   1.000
    H10     H    0.14022   0.67683   0.60792   1.000
    H11     H    0.63990   0.67571   0.60818   1.000
    H12     H    0.25893   0.02373   0.72944   1.000
    H13     H    0.75787   0.02413   0.72968   1.000
    H14     H    0.25218   0.81719   0.96527   1.000
    H15     H    0.75134   0.81718   0.96515   1.000
    H16     H    0.34157   0.90363   0.03950   1.000
    H17     H    0.84086   0.90337   0.03929   1.000
    H18     H    0.38649   0.04774   0.95530   1.000
    H19     H    0.88576   0.04757   0.95514   1.000
    H20     H    0.20158   0.73637   0.85552   1.000
    H21     H    0.70107   0.73649   0.85535   1.000
    H22     H    0.14207   0.81818   0.89263   1.000
    H23     H    0.64125   0.81768   0.89260   1.000
    H24     H    0.00619   0.22934   0.97248   1.000
    H25     H    0.50702   0.22921   0.97295   1.000
    H26     H    0.99685   0.46420   0.18319   1.000
    H27     H    0.49744   0.46466   0.18290   1.000
    H28     H    0.08854   0.53615   0.10220   1.000
    H29     H    0.58891   0.53679   0.10150   1.000
    H30     H    0.13589   0.45148   0.95831   1.000
    H31     H    0.63627   0.45191   0.95775   1.000
    H32     H    0.44654   0.35818   0.26093   1.000
    H33     H    0.94610   0.35755   0.26078   1.000
    H34     H    0.38716   0.39223   0.17734   1.000
    H35     H    0.88659   0.39211   0.17760   1.000
    H36     H    0.00731   0.27273   0.52517   1.000
    H37     H    0.50831   0.27307   0.52499   1.000
    H38     H    0.99404   0.03860   0.31411   1.000
    H39     H    0.49441   0.03861   0.31442   1.000
    H40     H    0.08489   0.96455   0.39416   1.000
    H41     H    0.58503   0.96411   0.39466   1.000
    H42     H    0.13373   0.04776   0.53798   1.000
    H43     H    0.63407   0.04725   0.53835   1.000
    H44     H    0.44516   0.14676   0.23740   1.000
    H45     H    0.94470   0.14658   0.23721   1.000
    H46     H    0.38550   0.11342   0.32120   1.000
    H47     H    0.88496   0.11290   0.32070   1.000
    H48     H    0.24233   0.52918   0.23046   1.000
    H49     H    0.74257   0.52953   0.23065   1.000
    H50     H    0.24899   0.32046   0.46423   1.000
    H51     H    0.74859   0.32025   0.46396   1.000
    H52     H    0.15800   0.40234   0.53719   1.000
    H53     H    0.65731   0.40174   0.53636   1.000
    H54     H    0.11226   0.54537   0.45347   1.000
    H55     H    0.61174   0.54493   0.45259   1.000
    H56     H    0.29960   0.24315   0.35563   1.000
    H57     H    0.79883   0.24316   0.35517   1.000
    H58     H    0.36015   0.32428   0.39178   1.000
    H59     H    0.85981   0.32321   0.39200   1.000
    H60     H    0.24216   0.97590   0.27028   1.000
    H61     H    0.74109   0.97630   0.27052   1.000
    H62     H    0.24869   0.18285   0.03481   1.000
    H63     H    0.74784   0.18284   0.03469   1.000
    H64     H    0.15917   0.09667   0.96067   1.000
    H65     H    0.65846   0.09639   0.96042   1.000
    H66     H    0.11427   0.95246   0.04481   1.000
    H67     H    0.61354   0.95228   0.04465   1.000
    H68     H    0.29898   0.26353   0.14460   1.000
    H69     H    0.79845   0.26366   0.14443   1.000
    H70     H    0.35879   0.18232   0.10730   1.000
    H71     H    0.85796   0.18184   0.10733   1.000
    H72     H    0.49301   0.77081   0.02699   1.000
    H73     H    0.99384   0.77068   0.02748   1.000
    H74     H    0.50260   0.53534   0.81699   1.000
    H75     H    0.00000   0.53581   0.81678   1.000
    H76     H    0.41114   0.46321   0.89848   1.000
    H77     H    0.91150   0.46387   0.89777   1.000
    H78     H    0.36379   0.54809   0.04223   1.000
    H79     H    0.86414   0.54854   0.04166   1.000
    H80     H    0.05393   0.64246   0.73919   1.000
    H81     H    0.55352   0.64181   0.73903   1.000
    H82     H    0.11344   0.60792   0.82230   1.000
    H83     H    0.61288   0.60778   0.82260   1.000
    C84     C    0.97612   0.70297   0.99694   1.000
    C85     C    0.50386   0.66087   0.91458   1.000
    C86     C    0.00000   0.66105   0.91475   1.000
    C87     C    0.48152   0.57242   0.87880   1.000
    H88     H    0.49172   0.72693   0.47498   1.000
    H89     H    0.99271   0.72729   0.47481   1.000
    H90     H    0.50563   0.96140   0.68555   1.000
    H91     H    0.00000   0.96143   0.68585   1.000
    H92     H    0.41501   0.03591   0.60531   1.000
    H93     H    0.91514   0.03549   0.60579   1.000
    H94     H    0.36597   0.95277   0.46161   1.000
    H95     H    0.86630   0.95228   0.46197   1.000
    H96     H    0.05533   0.85345   0.76276   1.000
    H97     H    0.55490   0.85325   0.76252   1.000
    H98     H    0.11507   0.88712   0.67918   1.000
    H99     H    0.61455   0.88658   0.67865   1.000
    C100    C    0.26252   0.29293   0.86958   1.000
    C101    C    0.76311   0.29350   0.86960   1.000
    C102    C    0.27583   0.50051   0.70181   1.000
    C103    C    0.77593   0.50067   0.70180   1.000
    C104    C    0.24837   0.58236   0.66052   1.000
    C105    C    0.74837   0.58245   0.66050   1.000
    C106    C    0.27168   0.61808   0.57260   1.000
    C107    C    0.77137   0.61788   0.57227   1.000
    C108    C    0.32270   0.57187   0.53140   1.000
    C109    C    0.82222   0.57146   0.53070   1.000
    C110    C    0.34812   0.49228   0.57714   1.000
    C111    C    0.84776   0.49197   0.57653   1.000
    C112    C    0.16817   0.70184   0.67027   1.000
    C113    C    0.66780   0.70151   0.67020   1.000
    C114    C    0.26260   0.20578   0.62932   1.000
    C115    C    0.76324   0.20632   0.62879   1.000
    N116    N    0.45855   0.36415   0.70940   1.000
    N117    N    0.95888   0.36471   0.70929   1.000
    N118    N    0.07263   0.16328   0.53807   1.000
    N119    N    0.57331   0.16321   0.53814   1.000
    N120    N    0.29155   0.70928   0.13439   1.000
    C121    C    0.27670   0.99544   0.79795   1.000
    C122    C    0.77572   0.99569   0.79808   1.000
    C123    C    0.24958   0.91304   0.83960   1.000
    C124    C    0.74864   0.91322   0.83964   1.000
    C125    C    0.27215   0.87942   0.92866   1.000
    C126    C    0.77130   0.87944   0.92859   1.000
    C127    C    0.32208   0.92837   0.97080   1.000
    C128    C    0.82131   0.92826   0.97067   1.000
    C129    C    0.34717   0.00843   0.92476   1.000
    C130    C    0.84636   0.00839   0.92468   1.000
    C131    C    0.16935   0.79208   0.83008   1.000
    C132    C    0.66862   0.79194   0.83000   1.000
    C133    C    0.01220   0.13126   0.79169   1.000
    C134    C    0.51290   0.13155   0.79140   1.000
    C135    C    0.02391   0.29706   0.00302   1.000
    C136    C    0.52464   0.29710   0.00324   1.000
    C137    C    0.99546   0.33897   0.08521   1.000
    C138    C    0.49618   0.33914   0.08537   1.000
    C139    C    0.01794   0.42720   0.12132   1.000
    C140    C    0.51853   0.42758   0.12115   1.000
    C141    C    0.06916   0.46815   0.07531   1.000
    C142    C    0.56961   0.46863   0.07486   1.000
    C143    C    0.09557   0.42184   0.99538   1.000
    C144    C    0.59604   0.42220   0.99502   1.000
    C145    C    0.41452   0.33130   0.20438   1.000
    C146    C    0.91394   0.33099   0.20429   1.000
    C147    C    0.01349   0.36876   0.70681   1.000
    C148    C    0.51318   0.36819   0.70692   1.000
    C149    C    0.02397   0.20470   0.49442   1.000
    C150    C    0.52477   0.20486   0.49440   1.000
    C151    C    0.99473   0.16359   0.41237   1.000
    C152    C    0.49539   0.16378   0.41247   1.000
    C153    C    0.01585   0.07498   0.37588   1.000
    C154    C    0.51629   0.07497   0.37614   1.000
    C155    C    0.06657   0.03285   0.42140   1.000
    C156    C    0.56689   0.03259   0.42176   1.000
    C157    C    0.09381   0.07838   0.50123   1.000
    C158    C    0.59425   0.07808   0.50151   1.000
    C159    C    0.41362   0.17396   0.29432   1.000
    C160    C    0.91303   0.17358   0.29402   1.000
    C161    C    0.23693   0.70654   0.13034   1.000
    C162    C    0.73751   0.70708   0.13039   1.000
    C163    C    0.22415   0.49937   0.29817   1.000
    C164    C    0.72420   0.49952   0.29815   1.000
    C165    C    0.25170   0.41758   0.33947   1.000
    C166    C    0.75166   0.41768   0.33944   1.000
    C167    C    0.22869   0.38214   0.42770   1.000
    C168    C    0.72836   0.38196   0.42737   1.000
    C169    C    0.17785   0.42858   0.46920   1.000
    C170    C    0.67734   0.42818   0.46858   1.000
    C171    C    0.15232   0.50807   0.42344   1.000
    C172    C    0.65193   0.50777   0.42284   1.000
    C173    C    0.33225   0.29849   0.32968   1.000
    C174    C    0.83186   0.29819   0.32969   1.000
    C175    C    0.23680   0.79373   0.37118   1.000
    C176    C    0.73743   0.79423   0.37064   1.000
    C177    C    0.22431   0.00434   0.20188   1.000
    C178    C    0.72332   0.00459   0.20200   1.000
    C179    C    0.25139   0.08681   0.16032   1.000
    C180    C    0.75044   0.08699   0.16030   1.000
    C181    C    0.22873   0.12059   0.07137   1.000
    C182    C    0.72788   0.12061   0.07129   1.000
    C183    C    0.17873   0.07177   0.02929   1.000
    C184    C    0.67794   0.07165   0.02915   1.000
    C185    C    0.15367   0.99165   0.07527   1.000
    C186    C    0.65286   0.99159   0.07500   1.000
    C187    C    0.33142   0.20807   0.16990   1.000
    C188    C    0.83068   0.20794   0.16988   1.000
    C189    C    0.48713   0.86847   0.20854   1.000
    C190    C    0.98783   0.86876   0.20820   1.000
    C191    C    0.47540   0.70291   0.99671   1.000
    C192    C    0.98209   0.57281   0.87864   1.000
    C193    C    0.43043   0.53137   0.92511   1.000
    C194    C    0.93088   0.53187   0.92466   1.000
    C195    C    0.40401   0.57781   0.00496   1.000
    C196    C    0.90446   0.57817   0.00458   1.000
    C197    C    0.08609   0.66903   0.79567   1.000
    C198    C    0.58552   0.66870   0.79558   1.000
    C199    C    0.48684   0.63183   0.29303   1.000
    C200    C    0.98658   0.63128   0.29310   1.000
    C201    C    0.47527   0.79515   0.50556   1.000
    C202    C    0.97605   0.79532   0.50555   1.000
    C203    C    0.50464   0.83623   0.58750   1.000
    C204    C    0.00000   0.83643   0.58760   1.000
    C205    C    0.48375   0.92504   0.62383   1.000
    C206    C    0.98418   0.92504   0.62409   1.000
    C207    C    0.43315   0.96743   0.57821   1.000
    C208    C    0.93346   0.96718   0.57856   1.000
    C209    C    0.40579   0.92193   0.49846   1.000
    C210    C    0.90622   0.92165   0.49873   1.000
    C211    C    0.08700   0.82644   0.70595   1.000
    C212    C    0.58643   0.82604   0.70563   1.000
    C213    C    0.12766   0.74731   0.75055   1.000
    C214    C    0.62709   0.74696   0.75038   1.000
    C215    C    0.37296   0.25305   0.24958   1.000
    C216    C    0.87237   0.25272   0.24941   1.000
    N217    N    0.20789   0.29012   0.86559   1.000
    N218    N    0.70849   0.29076   0.86555   1.000
    N219    N    0.32485   0.45630   0.66130   1.000
    N220    N    0.82480   0.45626   0.66108   1.000
    N221    N    0.20798   0.20888   0.63257   1.000
    N222    N    0.70863   0.20967   0.63200   1.000
    N223    N    0.32467   0.04225   0.83928   1.000
    N224    N    0.82377   0.04238   0.83930   1.000
    N225    N    0.45829   0.13573   0.78983   1.000
    N226    N    0.95760   0.13523   0.79019   1.000
    N227    N    0.07310   0.33733   0.95888   1.000
    N228    N    0.57370   0.33746   0.95884   1.000
    N229    N    0.79214   0.70988   0.13438   1.000
    N230    N    0.17528   0.54377   0.33888   1.000
    N231    N    0.67518   0.54373   0.33860   1.000
    N232    N    0.29141   0.79039   0.36794   1.000
    N233    N    0.79205   0.79112   0.36739   1.000
    N234    N    0.17626   0.95765   0.16062   1.000
    N235    N    0.67535   0.95778   0.16068   1.000
    N236    N    0.04243   0.86479   0.20970   1.000
    N237    N    0.54174   0.86429   0.21013   1.000
    N238    N    0.42634   0.66256   0.04112   1.000
    N239    N    0.92693   0.66269   0.04108   1.000
    N240    N    0.04119   0.63531   0.29067   1.000
    N241    N    0.54147   0.63587   0.29051   1.000
    N242    N    0.42673   0.83680   0.46182   1.000
    N243    N    0.92739   0.83675   0.46189   1.000
    O244    O    0.20033   0.62113   0.71215   1.000
    O245    O    0.70058   0.62153   0.71248   1.000
    O246    O    0.20263   0.87159   0.78711   1.000
    O247    O    0.70161   0.87185   0.78724   1.000
    O248    O    0.44823   0.28779   0.12461   1.000
    O249    O    0.94740   0.28773   0.12417   1.000
    O250    O    0.44808   0.21638   0.37409   1.000
    O251    O    0.94732   0.21596   0.37400   1.000
    O252    O    0.29949   0.37849   0.28749   1.000
    O253    O    0.79969   0.37889   0.28780   1.000
    O254    O    0.29842   0.12817   0.21272   1.000
    O255    O    0.79739   0.12844   0.21285   1.000
    O256    O    0.05263   0.71229   0.87579   1.000
    O257    O    0.55180   0.71222   0.87533   1.000
    O258    O    0.05270   0.78406   0.62598   1.000
    O259    O    0.55195   0.78362   0.62588   1.000
loop_
    _geom_bond_atom_site_label_1
    _geom_bond_atom_site_label_2
    _geom_bond_distance
    _geom_bond_site_symmetry_2
    _ccdc_geom_bond_type
    C135   C137      1.40453  1_455   S
    C135   N227      1.34460  1_554   S
    C135   H24       1.09043  1_554   S
    C136   C138      1.40474      .   S
    C136   N228      1.34460  1_554   S
    C136   H25       1.09046  1_554   S
    C196   N239      1.35559      .   S
    C196   H79       1.08945      .   S
    C196   C194      1.38744  1_554   S
    C195   N238      1.35553      .   S
    C195   H78       1.08941      .   S
    C195   C193      1.38760  1_554   S
    H72    C191      1.09046  1_554   S
    H73    C84       1.09045  1_554   S
    C184   C182      1.39515      .   S
    C184   C186      1.38586  1_545   S
    C184   H65       1.08972  1_554   S
    C183   C181      1.39516      .   S
    C183   C185      1.38709  1_545   S
    C183   H64       1.08974  1_554   S
    H63    C182      1.08727      .   S
    H62    C181      1.08726      .   S
    H17    C128      1.08974  1_554   S
    H16    C127      1.08937  1_554   S
    N239   C84       1.34462  1_554   S
    N238   C191      1.34462  1_554   S
    H67    C186      1.08845      .   S
    H66    C185      1.08944      .   S
    C182   C180      1.39713      .   S
    C181   C179      1.39789      .   S
    C142   H29       1.08931      .   S
    C142   C140      1.39492      .   S
    C142   C144      1.38745  1_554   S
    C186   N235      1.35777      .   S
    C185   N234      1.35558      .   S
    C141   H28       1.08926      .   S
    C141   C139      1.39486      .   S
    C141   C143      1.38751  1_554   S
    C137   C139      1.39804  1_655   S
    C137   O249      1.36660      .   S
    C138   C140      1.39805      .   S
    C138   O248      1.36694      .   S
    H70    C187      1.09929      .   S
    H71    C188      1.09920      .   S
    C140   H27       1.08636      .   S
    C139   H26       1.08718  1_455   S
    O249   C146      1.44136      .   S
    O248   C145      1.44190      .   S
    C161   N120      1.18390      .   S
    C162   N229      1.18401      .   S
    H69    C188      1.10077      .   S
    H68    C187      1.10044      .   S
    C180   C178      1.40477      .   S
    C180   O255      1.36649      .   S
    C179   C177      1.40450      .   S
    C179   O254      1.36620      .   S
    N234   C177      1.34377  1_565   S
    N235   C178      1.34362  1_565   S
    C188   O255      1.44121      .   S
    C188   C216      1.53866      .   S
    C187   O254      1.44148      .   S
    C187   C215      1.53928      .   S
    H34    C145      1.09915      .   S
    H35    C146      1.09935      .   S
    C177   H60       1.09030  1_545   S
    C178   H61       1.09033  1_545   S
    C146   C216      1.53769      .   S
    C146   H33       1.10043      .   S
    C145   C215      1.53791      .   S
    C145   H32       1.10037      .   S
    C190   N236      1.18358  1_655   S
    C189   N237      1.18384      .   S
    H48    C163      1.09026      .   S
    H49    C164      1.09031      .   S
    H45    C160      1.10045      .   S
    H44    C159      1.10072      .   S
    C216   C160      1.53825      .   S
    C216   C174      1.53772      .   S
    C215   C159      1.53847      .   S
    C215   C173      1.53829      .   S
    O252   C173      1.44190      .   S
    O252   C165      1.36610      .   S
    O253   C174      1.44145      .   S
    O253   C166      1.36609      .   S
    N241   C199      1.18390      .   S
    N240   C200      1.18347  1_455   S
    C160   H47       1.09870      .   S
    C160   O251      1.44190      .   S
    C159   H46       1.09862      .   S
    C159   O250      1.44193      .   S
    C164   N231      1.34378      .   S
    C164   C166      1.40415      .   S
    C163   N230      1.34395      .   S
    C163   C165      1.40446      .   S
    H38    C153      1.08722  1_655   S
    H39    C154      1.08717      .   S
    C173   H56       1.10039      .   S
    C173   H58       1.09912      .   S
    C174   H57       1.10039      .   S
    C174   H59       1.09870      .   S
    N231   C172      1.35554      .   S
    N230   C171      1.35559      .   S
    C166   C168      1.39797      .   S
    C165   C167      1.39793      .   S
    N233   C176      1.18400      .   S
    N232   C175      1.18391      .   S
    O251   C151      1.36661      .   S
    O250   C152      1.36681      .   S
    C153   C151      1.39814  1_455   S
    C153   C155      1.39504      .   S
    C154   C152      1.39822      .   S
    C154   C156      1.39511      .   S
    H40    C155      1.08904  1_565   S
    H41    C156      1.08904  1_565   S
    C151   C149      1.40424  1_655   S
    C152   C150      1.40411      .   S
    C155   C157      1.38709      .   S
    C156   C158      1.38712      .   S
    C172   H55       1.08941      .   S
    C172   C170      1.38709      .   S
    C171   H54       1.08941      .   S
    C171   C169      1.38721      .   S
    C168   H51       1.08720      .   S
    C168   C170      1.39498      .   S
    C167   H50       1.08722      .   S
    C167   C169      1.39497      .   S
    H94    C209      1.08943      .   S
    N242   C209      1.35567      .   S
    N242   C201      1.34406      .   S
    N243   C210      1.35572      .   S
    N243   C202      1.34423      .   S
    H95    C210      1.08939      .   S
    H5     C109      1.08848      .   S
    H4     C108      1.08932      .   S
    C170   H53       1.08933      .   S
    C169   H52       1.08923      .   S
    H89    C202      1.09023      .   S
    H88    C201      1.09020      .   S
    C150   H37       1.09025      .   S
    C150   N119      1.34408      .   S
    C149   H36       1.09025      .   S
    C149   N118      1.34421      .   S
    C209   C207      1.38712      .   S
    C210   C208      1.38708      .   S
    C157   H42       1.08936      .   S
    C157   N118      1.35570      .   S
    C158   N119      1.35561      .   S
    C158   H43       1.08937      .   S
    C202   C204      1.35666  1_655   S
    C201   C203      1.40423      .   S
    C109   C107      1.39534      .   S
    C109   C111      1.38765      .   S
    C108   C106      1.39497      .   S
    C108   C110      1.38713      .   S
    H3     C107      1.08727      .   S
    H2     C106      1.08720      .   S
    H7     C111      1.08946      .   S
    H6     C110      1.08943      .   S
    C107   C105      1.39788      .   S
    C106   C104      1.39800      .   S
    C111   N220      1.35543      .   S
    C110   N219      1.35475      .   S
    C207   H92       1.08905  1_565   S
    C207   C205      1.39510      .   S
    C208   H93       1.08902  1_565   S
    C208   C206      1.39505      .   S
    C203   C205      1.39821      .   S
    C203   O259      1.36680      .   S
    C204   C206      1.36458  1_455   S
    C204   O258      1.45487      .   S
    H10    C112      1.09908      .   S
    H11    C113      1.09830      .   S
    C205   H90       1.08716      .   S
    C206   H91       1.03771  1_655   S
    O259   C212      1.44188      .   S
    O258   C211      1.44190      .   S
    C115   N222      1.18390      .   S
    C114   N221      1.18401      .   S
    H9     C113      1.10002      .   S
    H8     C112      1.10037      .   S
    C105   C103      1.40445      .   S
    C105   O245      1.36612      .   S
    C104   C102      1.40416      .   S
    C104   O244      1.36607      .   S
    N220   C103      1.34399      .   S
    N219   C102      1.34417      .   S
    C113   O245      1.44241      .   S
    C113   C214      1.53914      .   S
    C112   O244      1.44143      .   S
    C112   C213      1.53769      .   S
    H99    C212      1.09901      .   S
    H98    C211      1.09907      .   S
    C103   H1        1.09032      .   S
    C102   H0        1.09029      .   S
    C212   C214      1.53851      .   S
    C212   H97       1.10038      .   S
    C211   C213      1.53822      .   S
    C211   H96       1.10040      .   S
    C147   N117      1.18350  1_455   S
    C148   N116      1.18389      .   S
    H12    C121      1.09025  1_545   S
    H13    C122      1.09030  1_545   S
    H81    C198      1.10033      .   S
    H80    C197      1.10033      .   S
    C214   C198      1.53789      .   S
    C214   C132      1.53870      .   S
    C213   C197      1.53767      .   S
    C213   C131      1.53867      .   S
    O246   C131      1.44121      .   S
    O246   C123      1.36607      .   S
    O247   C132      1.44116      .   S
    O247   C124      1.36621      .   S
    N225   C134      1.18382      .   S
    N226   C133      1.18358  1_655   S
    C198   H83       1.09896      .   S
    C198   O257      1.44191      .   S
    C197   H82       1.09906      .   S
    C197   O256      1.44140      .   S
    C121   N223      1.34367  1_565   S
    C121   C123      1.40450      .   S
    C122   N224      1.34358  1_565   S
    C122   C124      1.40448      .   S
    H75    C192      1.05989  1_455   S
    H74    C87       1.08700      .   S
    C132   H21       1.10067      .   S
    C132   H23       1.09927      .   S
    C131   H20       1.10075      .   S
    C131   H22       1.09916      .   S
    N223   C129      1.35543      .   S
    N224   C130      1.35595      .   S
    C123   C125      1.39775      .   S
    C124   C126      1.39790      .   S
    N218   C101      1.18392      .   S
    N217   C100      1.18401      .   S
    O257   C85       1.36694      .   S
    O256   C86       1.44299      .   S
    C192   C86       1.36721  1_655   S
    C192   C194      1.39491      .   S
    C87    C85       1.39808      .   S
    C87    C193      1.39501      .   S
    H77    C194      1.08930      .   S
    H76    C193      1.08929      .   S
    C85    C191      1.40475      .   S
    C86    C84       1.36398  1_455   S
    C130   H19       1.08947      .   S
    C130   C128      1.38712  1_545   S
    C129   H18       1.08945      .   S
    C129   C127      1.38704  1_545   S
    C126   H15       1.08725      .   S
    C126   C128      1.39518      .   S
    C125   H14       1.08733      .   S
    C125   C127      1.39516      .   S
    H31    C144      1.08946      .   S
    H30    C143      1.08938      .   S
    N228   C144      1.35557      .   S
    N227   C143      1.35556      .   S
