# CIF file generated by openbabel 2.4.90, see http://openbabel.sf.net
data_I
_chemical_name_common ''
_cell_length_a 21.644
_cell_length_b 13.83
_cell_length_c 13.69
_cell_angle_alpha 90.487
_cell_angle_beta 89.967
_cell_angle_gamma 90.27
_space_group_name_H-M_alt 'P 1'
_space_group_name_Hall 'P 1'
loop_
    _symmetry_equiv_pos_as_xyz
    x,y,z
loop_
    _atom_site_label
    _atom_site_type_symbol
    _atom_site_fract_x
    _atom_site_fract_y
    _atom_site_fract_z
    _atom_site_occupancy
    Zr0     Zr   0.37081   0.34141   0.72042   1.000
    Zr1     Zr   0.87136   0.34164   0.72027   1.000
    Zr2     Zr   0.37062   0.15803   0.77953   1.000
    Zr3     Zr   0.86986   0.15796   0.77962   1.000
    Zr4     Zr   0.12022   0.27917   0.84213   1.000
    Zr5     Zr   0.62100   0.27923   0.84203   1.000
    Zr6     Zr   0.12027   0.22066   0.65449   1.000
    Zr7     Zr   0.62111   0.22078   0.65446   1.000
    Zr8     Zr   0.12871   0.65838   0.27960   1.000
    Zr9     Zr   0.62922   0.65861   0.27953   1.000
    Zr10    Zr   0.13017   0.84206   0.22033   1.000
    Zr11    Zr   0.62941   0.84199   0.22043   1.000
    Zr12    Zr   0.37903   0.72079   0.15792   1.000
    Zr13    Zr   0.87981   0.72085   0.15784   1.000
    Zr14    Zr   0.37893   0.77924   0.34550   1.000
    Zr15    Zr   0.87976   0.77936   0.34547   1.000
    Zr16    Zr   0.33883   0.29613   0.87780   1.000
    Zr17    Zr   0.83941   0.29646   0.87772   1.000
    Zr18    Zr   0.33893   0.20237   0.62201   1.000
    Zr19    Zr   0.83955   0.20259   0.62174   1.000
    Zr20    Zr   0.08850   0.12332   0.79310   1.000
    Zr21    Zr   0.58919   0.12337   0.79297   1.000
    Zr22    Zr   0.08981   0.37664   0.70420   1.000
    Zr23    Zr   0.58951   0.37638   0.70418   1.000
    Zr24    Zr   0.16063   0.70357   0.12222   1.000
    Zr25    Zr   0.66120   0.70390   0.12216   1.000
    Zr26    Zr   0.16048   0.79746   0.37821   1.000
    Zr27    Zr   0.66110   0.79765   0.37790   1.000
    Zr28    Zr   0.41084   0.87665   0.20699   1.000
    Zr29    Zr   0.91153   0.87670   0.20683   1.000
    Zr30    Zr   0.41052   0.62365   0.29578   1.000
    Zr31    Zr   0.91026   0.62340   0.29570   1.000
    O32     O    0.64530   0.77294   0.17130   1.000
    O33     O    0.64521   0.68126   0.20084   1.000
    O34     O    0.14540   0.77281   0.17127   1.000
    O35     O    0.14467   0.68098   0.20091   1.000
    O36     O    0.89567   0.79878   0.18233   1.000
    O37     O    0.89503   0.67213   0.22677   1.000
    O38     O    0.87978   0.75011   0.25166   1.000
    O39     O    0.39493   0.79872   0.18246   1.000
    O40     O    0.39477   0.67222   0.22685   1.000
    O41     O    0.37898   0.75002   0.25171   1.000
    O42     O    0.89564   0.82803   0.27615   1.000
    O43     O    0.39488   0.82794   0.27624   1.000
    O44     O    0.12944   0.75022   0.24997   1.000
    O45     O    0.14533   0.81976   0.29927   1.000
    O46     O    0.62931   0.75030   0.24998   1.000
    O47     O    0.64525   0.81982   0.29917   1.000
    O48     O    0.64516   0.72813   0.32872   1.000
    O49     O    0.14460   0.72792   0.32890   1.000
    O50     O    0.89501   0.70138   0.32059   1.000
    O51     O    0.39472   0.70144   0.32064   1.000
    O52     O    0.85546   0.27211   0.67100   1.000
    O53     O    0.85471   0.18028   0.70068   1.000
    O54     O    0.35487   0.27189   0.67121   1.000
    O55     O    0.35478   0.18020   0.70077   1.000
    O56     O    0.60531   0.29858   0.67932   1.000
    O57     O    0.60515   0.17208   0.72371   1.000
    O58     O    0.62105   0.25001   0.74825   1.000
    O59     O    0.10504   0.29865   0.67935   1.000
    O60     O    0.10439   0.17199   0.72379   1.000
    O61     O    0.12025   0.24991   0.74831   1.000
    O62     O    0.60526   0.32780   0.77311   1.000
    O63     O    0.10502   0.32790   0.77317   1.000
    O64     O    0.87061   0.24980   0.74994   1.000
    O65     O    0.85538   0.31905   0.79900   1.000
    O66     O    0.37071   0.24972   0.74997   1.000
    O67     O    0.35482   0.31877   0.79911   1.000
    O68     O    0.35473   0.22708   0.82866   1.000
    O69     O    0.85463   0.22721   0.82867   1.000
    O70     O    0.60510   0.20130   0.81750   1.000
    O71     O    0.10436   0.20124   0.81762   1.000
    N72     N    0.37352   0.25144   0.24921   1.000
    O73     O    0.26276   0.42626   0.27922   1.000
    O74     O    0.48544   0.27989   0.07482   1.000
    O75     O    0.26337   0.07565   0.21984   1.000
    O76     O    0.48537   0.22172   0.42275   1.000
    N77     N    0.01388   0.63330   0.29189   1.000
    O78     O    0.98115   0.63032   0.29314   1.000
    O79     O    0.04942   0.64007   0.28851   1.000
    N80     N    0.12673   0.74871   0.75085   1.000
    O81     O    0.23728   0.57378   0.72086   1.000
    O82     O    0.23719   0.92443   0.78013   1.000
    O83     O    0.01505   0.72024   0.92516   1.000
    O84     O    0.01515   0.77838   0.57727   1.000
    N85     N    0.26410   0.79206   0.36956   1.000
    O86     O    0.29963   0.78844   0.36314   1.000
    O87     O    0.23137   0.79383   0.37213   1.000
    N88     N    0.62652   0.74857   0.75074   1.000
    O89     O    0.73730   0.57376   0.72071   1.000
    O90     O    0.73667   0.92437   0.78010   1.000
    O91     O    0.51460   0.72012   0.92513   1.000
    O92     O    0.51467   0.77830   0.57720   1.000
    N93     N    0.87296   0.25131   0.24910   1.000
    O94     O    0.76258   0.42624   0.27908   1.000
    O95     O    0.98471   0.22164   0.42269   1.000
    O96     O    0.76267   0.07560   0.21983   1.000
    O97     O    0.98481   0.27978   0.07480   1.000
    N98     N    0.48560   0.13364   0.79061   1.000
    O99     O    0.51832   0.13055   0.79140   1.000
    O100    O    0.45003   0.14026   0.78765   1.000
    N101    N    0.76474   0.79267   0.36901   1.000
    O102    O    0.73201   0.79431   0.37164   1.000
    O103    O    0.80032   0.78896   0.36272   1.000
    N104    N    0.73580   0.29213   0.86757   1.000
    O105    O    0.70027   0.28856   0.86068   1.000
    O106    O    0.76853   0.29356   0.87062   1.000
    N107    N    0.98619   0.36674   0.70805   1.000
    O108    O    0.01892   0.36972   0.70678   1.000
    O109    O    0.95066   0.35996   0.71141   1.000
    N110    N    0.48587   0.36617   0.70816   1.000
    O111    O    0.51861   0.36923   0.70686   1.000
    O112    O    0.45027   0.35948   0.71153   1.000
    N113    N    0.73593   0.20799   0.63039   1.000
    O114    O    0.70040   0.21161   0.63681   1.000
    O115    O    0.76867   0.20622   0.62783   1.000
    N116    N    0.23529   0.20733   0.63094   1.000
    O117    O    0.19971   0.21105   0.63724   1.000
    O118    O    0.26803   0.20570   0.62831   1.000
    N119    N    0.51416   0.63385   0.29177   1.000
    O120    O    0.48142   0.63079   0.29309   1.000
    O121    O    0.54975   0.64054   0.28840   1.000
    N122    N    0.01513   0.86677   0.20895   1.000
    O123    O    0.98241   0.86975   0.20823   1.000
    O124    O    0.05072   0.86010   0.21198   1.000
    N125    N    0.23521   0.29153   0.86758   1.000
    O126    O    0.26794   0.29303   0.87064   1.000
    O127    O    0.19963   0.28809   0.86072   1.000
    N128    N    0.26424   0.70791   0.13237   1.000
    O129    O    0.29976   0.71147   0.13926   1.000
    O130    O    0.23151   0.70648   0.12932   1.000
    N131    N    0.51443   0.86638   0.20934   1.000
    O132    O    0.48171   0.86947   0.20855   1.000
    O133    O    0.55000   0.85976   0.21231   1.000
    N134    N    0.76482   0.70848   0.13239   1.000
    O135    O    0.80040   0.71192   0.13925   1.000
    O136    O    0.73209   0.70698   0.12933   1.000
    N137    N    0.98490   0.13325   0.79094   1.000
    O138    O    0.94931   0.13992   0.78792   1.000
    O139    O    0.01762   0.13027   0.79167   1.000
loop_
    _geom_bond_atom_site_label_1
    _geom_bond_atom_site_label_2
    _geom_bond_distance
    _geom_bond_site_symmetry_2
    _ccdc_geom_bond_type
    Zr25   O32       1.21436      .   S
    Zr11   O32       1.21436      .   S
    Zr25   O33       1.17579      .   S
    Zr9    O33       1.17579      .   S
    Zr24   O34       1.21186      .   S
    Zr10   O34       1.21186      .   S
    Zr24   O35       1.17546      .   S
    Zr8    O35       1.17546      .   S
    Zr13   O36       1.17569      .   S
    Zr29   O36       1.17569      .   S
    Zr13   O37       1.21101      .   S
    Zr31   O37       1.21101      .   S
    Zr13   O38       1.34325      .   S
    Zr15   O38       1.34325      .   S
    Zr12   O39       1.17616      .   S
    Zr28   O39       1.17616      .   S
    Zr12   O40       1.21291      .   S
    Zr30   O40       1.21291      .   S
    Zr12   O41       1.34281      .   S
    Zr14   O41       1.34281      .   S
    Zr29   O42       1.21664      .   S
    Zr15   O42       1.21664      .   S
    Zr28   O43       1.21662      .   S
    Zr14   O43       1.21662      .   S
    Zr10   O44       1.33664      .   S
    Zr8    O44       1.33664      .   S
    Zr10   O45       1.17374      .   S
    Zr26   O45       1.17374      .   S
    Zr11   O46       1.33429      .   S
    Zr9    O46       1.33429      .   S
    Zr11   O47       1.17496      .   S
    Zr27   O47       1.17496      .   S
    Zr9    O48       1.21776      .   S
    Zr27   O48       1.21776      .   S
    Zr8    O49       1.21852      .   S
    Zr26   O49       1.21852      .   S
    Zr31   O50       1.17691      .   S
    Zr15   O50       1.17691      .   S
    Zr30   O51       1.17788      .   S
    Zr14   O51       1.17788      .   S
    Zr19   O52       1.21824      .   S
    Zr1    O52       1.21824      .   S
    Zr19   O53       1.17375      .   S
    Zr3    O53       1.17375      .   S
    Zr18   O54       1.21788      .   S
    Zr0    O54       1.21788      .   S
    Zr18   O55       1.17526      .   S
    Zr2    O55       1.17526      .   S
    Zr7    O56       1.17790      .   S
    Zr23   O56       1.17790      .   S
    Zr7    O57       1.21663      .   S
    Zr21   O57       1.21663      .   S
    Zr7    O58       1.34274      .   S
    Zr5    O58       1.34274      .   S
    Zr6    O59       1.17678      .   S
    Zr22   O59       1.17678      .   S
    Zr6    O60       1.21645      .   S
    Zr20   O60       1.21645      .   S
    Zr6    O61       1.34332      .   S
    Zr4    O61       1.34332      .   S
    Zr23   O62       1.21289      .   S
    Zr5    O62       1.21289      .   S
    Zr22   O63       1.21132      .   S
    Zr4    O63       1.21132      .   S
    Zr1    O64       1.33682      .   S
    Zr3    O64       1.33682      .   S
    Zr1    O65       1.17601      .   S
    Zr17   O65       1.17601      .   S
    Zr0    O66       1.33431      .   S
    Zr2    O66       1.33431      .   S
    Zr0    O67       1.17583      .   S
    Zr16   O67       1.17583      .   S
    Zr2    O68       1.21434      .   S
    Zr16   O68       1.21434      .   S
    Zr3    O69       1.21184      .   S
    Zr17   O69       1.21184      .   S
    Zr21   O70       1.17614      .   S
    Zr5    O70       1.17614      .   S
    Zr20   O71       1.17572      .   S
    Zr4    O71       1.17572      .   S
    N72    O73       3.43487      .   S
    Zr8    O73       4.33716      .   S
    N72    O74       3.42375      .   S
    Zr5    O74       4.33068  1_556   S
    N72    O75       3.41861      .   S
    Zr10   O75       4.31981  1_565   S
    N72    O76       3.42140      .   S
    Zr7    O76       4.32496      .   S
    N77    O78       0.70965  1_455   S
    Zr31   O78       1.53727      .   S
    N77    O79       0.77573      .   S
    Zr8    O79       1.73804      .   S
    N80    O81       3.43264      .   S
    Zr0    O81       4.33219      .   S
    N80    O82       3.42219      .   S
    Zr2    O82       4.32325  1_545   S
    N80    O83       3.41943      .   S
    Zr13   O83       4.32491  1_654   S
    N80    O84       3.41767      .   S
    Zr15   O84       4.32085  1_655   S
    N85    O86       0.77583      .   S
    Zr14   O86       1.73807      .   S
    N85    O87       0.70981      .   S
    Zr26   O87       1.53753      .   S
    N88    O89       3.43506      .   S
    Zr1    O89       4.33735      .   S
    N88    O90       3.41851      .   S
    Zr3    O90       4.31971  1_545   S
    N88    O91       3.42382      .   S
    Zr12   O91       4.33077  1_554   S
    N88    O92       3.42145      .   S
    Zr14   O92       4.32506      .   S
    N93    O94       3.43010      .   S
    Zr9    O94       4.32978      .   S
    N93    O95       3.42026      .   S
    Zr6    O95       4.32336  1_455   S
    N93    O96       3.41971      .   S
    Zr11   O96       4.32090  1_565   S
    N93    O97       3.42191      .   S
    Zr4    O97       4.32726  1_456   S
    N98    O99       0.70987      .   S
    Zr21   O99       1.53776      .   S
    N98    O100      0.77686      .   S
    Zr2    O100      1.74106      .   S
    N101   O102      0.70994      .   S
    Zr27   O102      1.53790      .   S
    N101   O103      0.77678      .   S
    Zr15   O103      1.74082      .   S
    N104   O105      0.77603      .   S
    Zr5    O105      1.73876      .   S
    N104   O106      0.70982      .   S
    Zr17   O106      1.53756      .   S
    N107   O108      0.70966  1_655   S
    Zr22   O108      1.53728      .   S
    N107   O109      0.77571      .   S
    Zr1    O109      1.73793      .   S
    N110   O111      0.70988      .   S
    Zr23   O111      1.53777      .   S
    N110   O112      0.77690      .   S
    Zr0    O112      1.74121      .   S
    N113   O114      0.77584      .   S
    Zr7    O114      1.73814      .   S
    N113   O115      0.70981      .   S
    Zr19   O115      1.53754      .   S
    N116   O117      0.77678      .   S
    Zr6    O117      1.74084      .   S
    N116   O118      0.70994      .   S
    Zr18   O118      1.53791      .   S
    N119   O120      0.70989      .   S
    Zr30   O120      1.53777      .   S
    N119   O121      0.77688      .   S
    Zr9    O121      1.74116      .   S
    N122   O123      0.70979  1_455   S
    Zr29   O123      1.53763      .   S
    N122   O124      0.77731      .   S
    Zr10   O124      1.74278      .   S
    N125   O126      0.70995      .   S
    Zr16   O126      1.53790      .   S
    N125   O127      0.77692      .   S
    Zr4    O127      1.74129      .   S
    N128   O129      0.77601      .   S
    Zr12   O129      1.73870      .   S
    N128   O130      0.70982      .   S
    Zr24   O130      1.53757      .   S
    N131   O132      0.70987      .   S
    Zr28   O132      1.53775      .   S
    N131   O133      0.77686      .   S
    Zr11   O133      1.74103      .   S
    N134   O135      0.77691      .   S
    Zr13   O135      1.74126      .   S
    N134   O136      0.70995      .   S
    Zr25   O136      1.53791      .   S
    N137   O138      0.77730      .   S
    Zr3    O138      1.74275      .   S
    N137   O139      0.70979  1_655   S
    Zr20   O139      1.53764      .   S
