# CIF file generated by openbabel 2.4.90, see http://openbabel.sf.net
data_I
_chemical_name_common ''
_cell_length_a 13.841
_cell_length_b 13.841
_cell_length_c 13.841
_cell_angle_alpha 108.007
_cell_angle_beta 108.003
_cell_angle_gamma 108.002
_space_group_name_H-M_alt 'P 1'
_space_group_name_Hall 'P 1'
loop_
    _symmetry_equiv_pos_as_xyz
    x,y,z
loop_
    _atom_site_label
    _atom_site_type_symbol
    _atom_site_fract_x
    _atom_site_fract_y
    _atom_site_fract_z
    _atom_site_occupancy
    N0      N    0.59981   0.79965   0.25592   1.000
    N1      N    0.74407   0.40018   0.20036   1.000
    N2      N    0.25590   0.59984   0.79965   1.000
    N3      N    0.20035   0.74410   0.40014   1.000
    N4      N    0.79962   0.25591   0.59983   1.000
    N5      N    0.40016   0.20036   0.74410   1.000
    Zr6     Zr   0.54287   0.56789   0.95911   1.000
    O7      O    0.55073   0.65398   0.05327   1.000
    Zr8     Zr   0.04092   0.45712   0.43209   1.000
    O9      O    0.94675   0.44927   0.34602   1.000
    Zr10    Zr   0.95905   0.54289   0.56789   1.000
    O11     O    0.05322   0.55075   0.65398   1.000
    Zr12    Zr   0.45709   0.43212   0.04091   1.000
    O13     O    0.44924   0.34604   0.94675   1.000
    Zr14    Zr   0.56786   0.95909   0.54290   1.000
    O15     O    0.65394   0.05325   0.55075   1.000
    Zr16    Zr   0.43211   0.04093   0.45712   1.000
    O17     O    0.34603   0.94676   0.44925   1.000
    O18     O    0.56499   0.42450   0.09825   1.000
    O19     O    0.90171   0.43499   0.57551   1.000
    O20     O    0.57548   0.90175   0.43500   1.000
    O21     O    0.42449   0.09827   0.56502   1.000
    O22     O    0.43498   0.57551   0.90176   1.000
    O23     O    0.09826   0.56502   0.42448   1.000
loop_
    _geom_bond_atom_site_label_1
    _geom_bond_atom_site_label_2
    _geom_bond_distance
    _geom_bond_site_symmetry_2
    _ccdc_geom_bond_type
    Zr6    O7        1.41498  1_556   S
    N0     O7        2.62165      .   S
    Zr8    O9        1.41509  1_455   S
    N1     O9        2.62201      .   S
    Zr10   O11       1.41520  1_655   S
    N2     O11       2.62207      .   S
    Zr12   O13       1.41500  1_554   S
    N5     O13       2.62173      .   S
    Zr14   O15       1.41511  1_565   S
    N4     O15       2.62190      .   S
    Zr16   O17       1.41499  1_545   S
    N3     O17       2.62180      .   S
    Zr12   O18       1.51253      .   S
    N1     O18       2.62655      .   S
    N4     O19       2.62654      .   S
    Zr10   O19       1.51255      .   S
    Zr14   O20       1.51252      .   S
    N0     O20       2.62654      .   S
    Zr16   O21       1.51250      .   S
    N5     O21       2.62647      .   S
    Zr6    O22       1.51257      .   S
    N2     O22       2.62659      .   S
    Zr8    O23       1.51250      .   S
    N3     O23       2.62670      .   S
