# CIF file generated by openbabel 2.4.90, see http://openbabel.sf.net
data_I
_chemical_name_common ''
_cell_length_a 13.841
_cell_length_b 13.841
_cell_length_c 13.841
_cell_angle_alpha 108.007
_cell_angle_beta 108.003
_cell_angle_gamma 108.002
_space_group_name_H-M_alt 'P 1'
_space_group_name_Hall 'P 1'
loop_
    _symmetry_equiv_pos_as_xyz
    x,y,z
loop_
    _atom_site_label
    _atom_site_type_symbol
    _atom_site_fract_x
    _atom_site_fract_y
    _atom_site_fract_z
    _atom_site_occupancy
    Zr0     Zr   0.95505   0.46150   0.59885   1.000
    Zr1     Zr   0.59881   0.95510   0.46151   1.000
    Zr2     Zr   0.46148   0.59884   0.95512   1.000
    Zr3     Zr   0.04492   0.53851   0.40118   1.000
    Zr4     Zr   0.40116   0.04492   0.53851   1.000
    Zr5     Zr   0.53848   0.40117   0.04490   1.000
    Zr6     Zr   0.96304   0.62428   0.53694   1.000
    Zr7     Zr   0.53691   0.96308   0.62429   1.000
    Zr8     Zr   0.62426   0.53694   0.96311   1.000
    Zr9     Zr   0.03693   0.37573   0.46300   1.000
    Zr10    Zr   0.46306   0.03693   0.37573   1.000
    Zr11    Zr   0.37570   0.46307   0.03692   1.000
    O12     O    0.45709   0.43212   0.04091   1.000
    O13     O    0.43211   0.04093   0.45712   1.000
    O14     O    0.04092   0.45712   0.43209   1.000
    O15     O    0.56786   0.95909   0.54290   1.000
    O16     O    0.95905   0.54289   0.56789   1.000
    O17     O    0.54287   0.56789   0.95911   1.000
    N18     N    0.59981   0.79965   0.25592   1.000
    O19     O    0.60588   0.85882   0.31961   1.000
    O20     O    0.56033   0.83000   0.33459   1.000
    O21     O    0.55858   0.74006   0.14742   1.000
    N22     N    0.74407   0.40018   0.20036   1.000
    O23     O    0.85258   0.44141   0.25995   1.000
    O24     O    0.66540   0.43966   0.17000   1.000
    O25     O    0.68038   0.39410   0.14119   1.000
    N26     N    0.25590   0.59984   0.79965   1.000
    O27     O    0.31959   0.60591   0.85881   1.000
    O28     O    0.14739   0.55861   0.74007   1.000
    O29     O    0.33457   0.56036   0.83001   1.000
    N30     N    0.20035   0.74410   0.40014   1.000
    O31     O    0.17001   0.66543   0.43964   1.000
    O32     O    0.14119   0.68041   0.39409   1.000
    O33     O    0.25994   0.85260   0.44137   1.000
    N34     N    0.79962   0.25591   0.59983   1.000
    O35     O    0.85878   0.31961   0.60591   1.000
    O36     O    0.82996   0.33459   0.56035   1.000
    O37     O    0.74002   0.14741   0.55860   1.000
    N38     N    0.40016   0.20036   0.74410   1.000
    O39     O    0.39409   0.14120   0.68041   1.000
    O40     O    0.44139   0.25996   0.85259   1.000
    O41     O    0.43964   0.17001   0.66543   1.000
loop_
    _geom_bond_atom_site_label_1
    _geom_bond_atom_site_label_2
    _geom_bond_distance
    _geom_bond_site_symmetry_2
    _ccdc_geom_bond_type
    Zr11   O12       1.31534      .   S
    Zr5    O12       1.31534      .   S
    Zr10   O13       1.31533      .   S
    Zr4    O13       1.31533      .   S
    Zr3    O14       1.31500      .   S
    Zr9    O14       1.31500      .   S
    Zr1    O15       1.31532      .   S
    Zr7    O15       1.31532      .   S
    Zr6    O16       1.31537      .   S
    Zr0    O16       1.31537      .   S
    Zr2    O17       1.31533      .   S
    Zr8    O17       1.31533      .   S
    N18    O19       0.95926      .   S
    Zr1    O19       2.05528      .   S
    N18    O20       1.37396      .   S
    Zr1    O20       1.82721      .   S
    N18    O21       1.29403      .   S
    Zr2    O21       2.37902  1_556   S
    N22    O23       1.29422      .   S
    Zr3    O23       2.37952  1_455   S
    N22    O24       1.37395      .   S
    Zr5    O24       1.82725      .   S
    N22    O25       0.95927      .   S
    Zr5    O25       2.05531      .   S
    N26    O27       0.95918      .   S
    Zr2    O27       2.05543      .   S
    N26    O28       1.29422      .   S
    Zr0    O28       2.37947  1_655   S
    N26    O29       1.37397      .   S
    Zr2    O29       1.82728      .   S
    N30    O31       1.37421      .   S
    Zr3    O31       1.82730      .   S
    N30    O32       0.95939      .   S
    Zr3    O32       2.05549      .   S
    N30    O33       1.29411      .   S
    Zr4    O33       2.37918  1_545   S
    N34    O35       0.95921      .   S
    Zr0    O35       2.05528      .   S
    N34    O36       1.37394      .   S
    Zr0    O36       1.82717      .   S
    N34    O37       1.29411      .   S
    Zr1    O37       2.37918  1_565   S
    N38    O39       0.95923      .   S
    Zr4    O39       2.05523      .   S
    N38    O40       1.29407      .   S
    Zr5    O40       2.37905  1_554   S
    N38    O41       1.37391      .   S
    Zr4    O41       1.82717      .   S
