# CIF file generated by openbabel 2.4.90, see http://openbabel.sf.net
data_I
_chemical_name_common ''
_cell_length_a 13.841
_cell_length_b 13.841
_cell_length_c 13.841
_cell_angle_alpha 108.007
_cell_angle_beta 108.003
_cell_angle_gamma 108.002
_space_group_name_H-M_alt 'P 1'
_space_group_name_Hall 'P 1'
loop_
    _symmetry_equiv_pos_as_xyz
    x,y,z
loop_
    _atom_site_label
    _atom_site_type_symbol
    _atom_site_fract_x
    _atom_site_fract_y
    _atom_site_fract_z
    _atom_site_occupancy
    N0      N    0.59981   0.79965   0.25592   1.000
    N1      N    0.74407   0.40018   0.20036   1.000
    N2      N    0.25590   0.59984   0.79965   1.000
    N3      N    0.20035   0.74410   0.40014   1.000
    N4      N    0.79962   0.25591   0.59983   1.000
    N5      N    0.40016   0.20036   0.74410   1.000
    Zr6     Zr   0.54287   0.56789   0.95911   1.000
    O7      O    0.43872   0.56412   0.89456   1.000
    O8      O    0.43123   0.58690   0.90896   1.000
    O9      O    0.55073   0.65398   0.05327   1.000
    Zr10    Zr   0.04092   0.45712   0.43209   1.000
    O11     O    0.94675   0.44927   0.34602   1.000
    O12     O    0.09106   0.56877   0.41309   1.000
    O13     O    0.10546   0.56128   0.43587   1.000
    Zr14    Zr   0.95905   0.54289   0.56789   1.000
    O15     O    0.05322   0.55075   0.65398   1.000
    O16     O    0.89451   0.43874   0.56412   1.000
    O17     O    0.90891   0.43125   0.58690   1.000
    Zr18    Zr   0.45709   0.43212   0.04091   1.000
    O19     O    0.56874   0.41311   0.09105   1.000
    O20     O    0.56125   0.43589   0.10546   1.000
    O21     O    0.44924   0.34604   0.94675   1.000
    Zr22    Zr   0.56786   0.95909   0.54290   1.000
    O23     O    0.65394   0.05325   0.55075   1.000
    O24     O    0.58687   0.90895   0.43126   1.000
    O25     O    0.56410   0.89455   0.43875   1.000
    Zr26    Zr   0.43211   0.04093   0.45712   1.000
    O27     O    0.41310   0.09106   0.56876   1.000
    O28     O    0.43588   0.10547   0.56127   1.000
    O29     O    0.34603   0.94676   0.44925   1.000
loop_
    _geom_bond_atom_site_label_1
    _geom_bond_atom_site_label_2
    _geom_bond_distance
    _geom_bond_site_symmetry_2
    _ccdc_geom_bond_type
    Zr6    O7        1.41692      .   S
    N2     O7        2.73735      .   S
    Zr6    O8        1.62482      .   S
    N2     O8        2.52524      .   S
    Zr6    O9        1.41498  1_556   S
    N0     O9        2.62165      .   S
    Zr10   O11       1.41509  1_455   S
    N1     O11       2.62201      .   S
    Zr10   O12       1.62475      .   S
    N3     O12       2.52535      .   S
    Zr10   O13       1.41686      .   S
    N3     O13       2.73747      .   S
    Zr14   O15       1.41520  1_655   S
    N2     O15       2.62207      .   S
    Zr14   O16       1.41690      .   S
    N4     O16       2.73730      .   S
    Zr14   O17       1.62481      .   S
    N4     O17       2.52519      .   S
    Zr18   O19       1.62478      .   S
    N1     O19       2.52522      .   S
    Zr18   O20       1.41690      .   S
    N1     O20       2.73730      .   S
    Zr18   O21       1.41500  1_554   S
    N5     O21       2.62173      .   S
    Zr22   O23       1.41511  1_565   S
    N4     O23       2.62190      .   S
    Zr22   O24       1.62477      .   S
    N0     O24       2.52520      .   S
    Zr22   O25       1.41688      .   S
    N0     O25       2.73729      .   S
    Zr26   O27       1.62475      .   S
    N5     O27       2.52514      .   S
    Zr26   O28       1.41686      .   S
    N5     O28       2.73723      .   S
    Zr26   O29       1.41499  1_545   S
    N3     O29       2.62180      .   S
