# CIF file generated by openbabel 2.4.90, see http://openbabel.sf.net
data_I
_chemical_name_common ''
_cell_length_a 13.701
_cell_length_b 13.846
_cell_length_c 14.057
_cell_angle_alpha 108.95
_cell_angle_beta 90.087
_cell_angle_gamma 89.967
_space_group_name_H-M_alt 'P 1'
_space_group_name_Hall 'P 1'
loop_
    _symmetry_equiv_pos_as_xyz
    x,y,z
loop_
    _atom_site_label
    _atom_site_type_symbol
    _atom_site_fract_x
    _atom_site_fract_y
    _atom_site_fract_z
    _atom_site_occupancy
    N0      N    0.81507   0.93793   0.31361   1.000
    N1      N    0.18513   0.06546   0.68714   1.000
    N2      N    0.31551   0.06623   0.18698   1.000
    N3      N    0.68439   0.93690   0.81391   1.000
    Zr4     Zr   0.00010   0.50169   0.50001   1.000
    O5      O    0.12524   0.36838   0.38170   1.000
    O6      O    0.06858   0.68293   0.56431   1.000
    O7      O    0.87493   0.63501   0.61861   1.000
    O8      O    0.92433   0.63643   0.41495   1.000
    O9      O    0.07582   0.36685   0.58527   1.000
    O10     O    0.93164   0.32048   0.43600   1.000
    Zr11    Zr   0.50022   0.50150   0.00011   1.000
    O12     O    0.56831   0.32001   0.93630   1.000
    O13     O    0.57595   0.63569   0.91500   1.000
    O14     O    0.43187   0.68311   0.06415   1.000
    O15     O    0.62513   0.63529   0.11867   1.000
    O16     O    0.42446   0.36719   0.08538   1.000
    O17     O    0.37509   0.36797   0.88178   1.000
loop_
    _geom_bond_atom_site_label_1
    _geom_bond_atom_site_label_2
    _geom_bond_distance
    _geom_bond_site_symmetry_2
    _ccdc_geom_bond_type
    Zr4    O5        2.66909      .   S
    N2     O5        4.93577      .   S
    Zr4    O6        2.55379      .   S
    N1     O6        5.25797  1_545   S
    Zr4    O7        2.67096  1_455   S
    N3     O7        4.93768      .   S
    Zr4    O8        2.72593  1_455   S
    N0     O8        5.05428      .   S
    Zr4    O9        2.72858      .   S
    N1     O9        5.05722      .   S
    Zr4    O10       2.55307  1_455   S
    N0     O10       5.25827  1_565   S
    Zr11   O12       2.55448  1_554   S
    N3     O12       5.26294  1_565   S
    Zr11   O13       2.72223  1_554   S
    N3     O13       5.04796      .   S
    Zr11   O14       2.55734      .   S
    N2     O14       5.26429  1_545   S
    Zr11   O15       2.66983      .   S
    N0     O15       4.93697      .   S
    Zr11   O16       2.72507      .   S
    N2     O16       5.05086      .   S
    Zr11   O17       2.66872  1_554   S
    N1     O17       4.93466      .   S
