# CIF file generated by openbabel 2.4.90, see http://openbabel.sf.net
data_I
_chemical_name_common ''
_cell_length_a 18.626
_cell_length_b 14.536
_cell_length_c 27.649
_cell_angle_alpha 89.935
_cell_angle_beta 89.867
_cell_angle_gamma 92.543
_space_group_name_H-M_alt 'P 1'
_space_group_name_Hall 'P 1'
loop_
    _symmetry_equiv_pos_as_xyz
    x,y,z
loop_
    _atom_site_label
    _atom_site_type_symbol
    _atom_site_fract_x
    _atom_site_fract_y
    _atom_site_fract_z
    _atom_site_occupancy
    Zn0     Zn   0.84940   0.12076   0.33368   1.000
    Zn1     Zn   0.49675   0.10572   0.37892   1.000
    Zn2     Zn   0.99674   0.10572   0.37892   1.000
    Zn3     Zn   0.15067   0.37931   0.83348   1.000
    Zn4     Zn   0.65067   0.37931   0.83348   1.000
    Zn5     Zn   0.00333   0.39409   0.87905   1.000
    Zn6     Zn   0.50332   0.39409   0.87905   1.000
    Zn7     Zn   0.15058   0.87922   0.66630   1.000
    Zn8     Zn   0.65057   0.87922   0.66630   1.000
    Zn9     Zn   0.00324   0.89426   0.62107   1.000
    Zn10    Zn   0.50323   0.89426   0.62107   1.000
    Zn11    Zn   0.34931   0.62068   0.16651   1.000
    Zn12    Zn   0.84931   0.62068   0.16651   1.000
    Zn13    Zn   0.49666   0.60589   0.12093   1.000
    Zn14    Zn   0.99665   0.60589   0.12093   1.000
    Zn15    Zn   0.34941   0.12076   0.33368   1.000
