# CIF file generated by openbabel 2.4.90, see http://openbabel.sf.net
data_I
_chemical_name_common 'VESTA_phase_1'
_cell_length_a 18.343
_cell_length_b 19.757
_cell_length_c 19.757
_cell_angle_alpha 90
_cell_angle_beta 90
_cell_angle_gamma 89.999
_space_group_name_H-M_alt 'P 1'
_space_group_name_Hall 'P 1'
loop_
    _symmetry_equiv_pos_as_xyz
    x,y,z
loop_
    _atom_site_label
    _atom_site_type_symbol
    _atom_site_fract_x
    _atom_site_fract_y
    _atom_site_fract_z
    _atom_site_occupancy
    Ba0     Ba   0.38345   0.81542   0.64744   1.000
    Ba1     Ba   0.88344   0.81542   0.64743   1.000
    Ba2     Ba   0.38264   0.68535   0.87615   1.000
    Ba3     Ba   0.88264   0.68535   0.87615   1.000
    Ba4     Ba   0.38345   0.18460   0.35257   1.000
    Ba5     Ba   0.88344   0.18460   0.35250   1.000
    Ba6     Ba   0.38264   0.31467   0.12386   1.000
    Ba7     Ba   0.88264   0.31467   0.12386   1.000
    Ba8     Ba   0.38345   0.35258   0.81542   1.000
    Ba9     Ba   0.88344   0.35258   0.81542   1.000
    Ba10    Ba   0.38265   0.12386   0.68535   1.000
    Ba11    Ba   0.88264   0.12386   0.68535   1.000
    Ba12    Ba   0.38344   0.64744   0.18460   1.000
    Ba13    Ba   0.88344   0.64744   0.18400   1.000
    Ba14    Ba   0.38264   0.87616   0.31466   1.000
    Ba15    Ba   0.88263   0.87616   0.31466   1.000
    Ba16    Ba   0.13345   0.31541   0.85259   1.000
    Ba17    Ba   0.63345   0.31541   0.85250   1.000
    Ba18    Ba   0.13265   0.18534   0.62387   1.000
    Ba19    Ba   0.63264   0.18534   0.62387   1.000
    Ba20    Ba   0.13345   0.68461   0.14743   1.000
    Ba21    Ba   0.63344   0.68461   0.14743   1.000
    Ba22    Ba   0.13264   0.81468   0.37614   1.000
    Ba23    Ba   0.63264   0.81468   0.37614   1.000
    Ba24    Ba   0.13345   0.85259   0.68460   1.000
    Ba25    Ba   0.63344   0.85259   0.68460   1.000
    Ba26    Ba   0.13264   0.62387   0.81467   1.000
    Ba27    Ba   0.63264   0.62387   0.81467   1.000
    Ba28    Ba   0.13345   0.14743   0.31540   1.000
    Ba29    Ba   0.63344   0.14743   0.31541   1.000
    Ba30    Ba   0.13265   0.37615   0.18534   1.000
    Ba31    Ba   0.63264   0.37615   0.18534   1.000
    H32     H    0.33185   0.88389   0.00697   1.000
    H33     H    0.83184   0.88389   0.00697   1.000
    H34     H    0.37889   0.80953   0.03150   1.000
    H35     H    0.87889   0.80953   0.03150   1.000
    H36     H    0.23642   0.79318   0.03740   1.000
    H37     H    0.73641   0.79318   0.03740   1.000
    H38     H    0.21620   0.73311   0.97397   1.000
    H39     H    0.71620   0.73311   0.97397   1.000
    H40     H    0.22240   0.86561   0.92957   1.000
    H41     H    0.72240   0.86561   0.92957   1.000
    H42     H    0.29823   0.86654   0.87392   1.000
    H43     H    0.79823   0.86653   0.87392   1.000
    H44     H    0.45665   0.89725   0.97257   1.000
    H45     H    0.95665   0.89725   0.97257   1.000
    H46     H    0.40440   0.88462   0.89842   1.000
    H47     H    0.90439   0.88462   0.89842   1.000
    H48     H    0.05406   0.78362   0.85246   1.000
    H49     H    0.55405   0.78362   0.85246   1.000
    H50     H    0.04016   0.87007   0.86784   1.000
    H51     H    0.54015   0.87007   0.86784   1.000
    H52     H    0.98728   0.77542   0.02443   1.000
    H53     H    0.48728   0.77543   0.02443   1.000
    H54     H    0.06298   0.81624   0.98696   1.000
    H55     H    0.56297   0.81624   0.98696   1.000
    H56     H    0.33186   0.11613   0.99304   1.000
    H57     H    0.83186   0.11613   0.99304   1.000
    H58     H    0.37890   0.19049   0.96844   1.000
    H59     H    0.87889   0.19049   0.96844   1.000
    H60     H    0.23643   0.20684   0.96254   1.000
    H61     H    0.73642   0.20684   0.96254   1.000
    H62     H    0.21620   0.26691   0.02605   1.000
    H63     H    0.71620   0.26691   0.02604   1.000
    H64     H    0.22241   0.13441   0.07044   1.000
    H65     H    0.72240   0.13441   0.07040   1.000
    H66     H    0.29824   0.13349   0.12609   1.000
    H67     H    0.79823   0.13349   0.12609   1.000
    H68     H    0.45666   0.10277   0.02744   1.000
    H69     H    0.95665   0.10277   0.02744   1.000
    H70     H    0.40440   0.11540   0.10159   1.000
    H71     H    0.90439   0.11540   0.10159   1.000
    H72     H    0.05406   0.21640   0.14754   1.000
    H73     H    0.55405   0.21640   0.14750   1.000
    H74     H    0.04016   0.12995   0.13217   1.000
    H75     H    0.54016   0.12995   0.13217   1.000
    H76     H    0.98729   0.22460   0.97558   1.000
    H77     H    0.48729   0.22460   0.97558   1.000
    H78     H    0.06298   0.18378   0.01305   1.000
    H79     H    0.56297   0.18378   0.01305   1.000
    H80     H    0.33186   0.99305   0.88389   1.000
    H81     H    0.83185   0.99305   0.88389   1.000
    H82     H    0.37890   0.96844   0.80953   1.000
    H83     H    0.87889   0.96844   0.80950   1.000
    H84     H    0.23642   0.96254   0.79317   1.000
    H85     H    0.73641   0.96254   0.79318   1.000
    H86     H    0.21620   0.02605   0.73311   1.000
    H87     H    0.71620   0.02605   0.73310   1.000
    H88     H    0.22241   0.07045   0.86560   1.000
    H89     H    0.72241   0.07045   0.86560   1.000
    H90     H    0.29824   0.12609   0.86653   1.000
    H91     H    0.79823   0.12609   0.86653   1.000
    H92     H    0.45666   0.02744   0.89725   1.000
    H93     H    0.95665   0.02744   0.89725   1.000
    H94     H    0.40440   0.10160   0.88462   1.000
    H95     H    0.90440   0.10159   0.88462   1.000
    H96     H    0.05407   0.14755   0.78362   1.000
    H97     H    0.55405   0.14755   0.78362   1.000
    H98     H    0.04016   0.13218   0.87006   1.000
    H99     H    0.54016   0.13217   0.87006   1.000
    H100    H    0.98729   0.97558   0.77542   1.000
    H101    H    0.48728   0.97558   0.77542   1.000
    H102    H    0.06299   0.01306   0.81623   1.000
    H103    H    0.56298   0.01306   0.81623   1.000
    H104    H    0.33186   0.00698   0.11610   1.000
    H105    H    0.83185   0.00698   0.11612   1.000
    H106    H    0.37890   0.03158   0.19040   1.000
    H107    H    0.87889   0.03158   0.19040   1.000
    H108    H    0.23643   0.03748   0.20684   1.000
    H109    H    0.73642   0.03748   0.20684   1.000
    H110    H    0.21619   0.97397   0.26691   1.000
    H111    H    0.71619   0.97397   0.26691   1.000
    H112    H    0.22240   0.92957   0.13441   1.000
    H113    H    0.72239   0.92958   0.13441   1.000
    H114    H    0.29823   0.87393   0.13348   1.000
    H115    H    0.79822   0.87393   0.13348   1.000
    H116    H    0.45665   0.97258   0.10276   1.000
    H117    H    0.95664   0.97258   0.10276   1.000
    H118    H    0.40439   0.89843   0.11539   1.000
    H119    H    0.90439   0.89843   0.11539   1.000
    H120    H    0.05405   0.85247   0.21639   1.000
    H121    H    0.55405   0.85247   0.21639   1.000
    H122    H    0.04016   0.86785   0.12995   1.000
    H123    H    0.54015   0.86785   0.12995   1.000
    H124    H    0.98729   0.02444   0.22459   1.000
    H125    H    0.48728   0.02444   0.22459   1.000
    H126    H    0.06297   0.98696   0.18378   1.000
    H127    H    0.56296   0.98696   0.18378   1.000
    H128    H    0.08186   0.38388   0.49303   1.000
    H129    H    0.58185   0.38388   0.49303   1.000
    H130    H    0.12890   0.30952   0.46843   1.000
    H131    H    0.62890   0.30952   0.46843   1.000
    H132    H    0.48642   0.29317   0.46253   1.000
    H133    H    0.98642   0.29317   0.46253   1.000
    H134    H    0.46620   0.23310   0.52600   1.000
    H135    H    0.96619   0.23310   0.52605   1.000
    H136    H    0.47240   0.36560   0.57045   1.000
    H137    H    0.97240   0.36560   0.57045   1.000
    H138    H    0.04824   0.36653   0.62610   1.000
    H139    H    0.54823   0.36652   0.62610   1.000
    H140    H    0.20666   0.39724   0.52745   1.000
    H141    H    0.70665   0.39724   0.52745   1.000
    H142    H    0.15440   0.38461   0.60160   1.000
    H143    H    0.65440   0.38461   0.60160   1.000
    H144    H    0.30406   0.28361   0.64750   1.000
    H145    H    0.80405   0.28361   0.64755   1.000
    H146    H    0.29016   0.37006   0.63218   1.000
    H147    H    0.79015   0.37006   0.63218   1.000
    H148    H    0.23729   0.27542   0.47557   1.000
    H149    H    0.73728   0.27541   0.47557   1.000
    H150    H    0.31298   0.31623   0.51306   1.000
    H151    H    0.81297   0.31623   0.51306   1.000
    H152    H    0.08186   0.61614   0.50698   1.000
    H153    H    0.58185   0.61614   0.50698   1.000
    H154    H    0.12890   0.69050   0.53150   1.000
    H155    H    0.62889   0.69050   0.53150   1.000
    H156    H    0.48642   0.70685   0.53740   1.000
    H157    H    0.98641   0.70685   0.53748   1.000
    H158    H    0.46619   0.76692   0.47396   1.000
    H159    H    0.96620   0.76693   0.47396   1.000
    H160    H    0.47240   0.63442   0.42956   1.000
    H161    H    0.97239   0.63442   0.42956   1.000
    H162    H    0.04823   0.63350   0.37391   1.000
    H163    H    0.54823   0.63350   0.37391   1.000
    H164    H    0.20666   0.60278   0.47256   1.000
    H165    H    0.70665   0.60278   0.47256   1.000
    H166    H    0.15440   0.61541   0.39841   1.000
    H167    H    0.65440   0.61541   0.39841   1.000
    H168    H    0.30406   0.71641   0.35246   1.000
    H169    H    0.80405   0.71641   0.35245   1.000
    H170    H    0.29015   0.62996   0.36780   1.000
    H171    H    0.79015   0.62996   0.36783   1.000
    H172    H    0.23728   0.72461   0.52444   1.000
    H173    H    0.73728   0.72461   0.52444   1.000
    H174    H    0.31297   0.68379   0.48695   1.000
    H175    H    0.81297   0.68379   0.48695   1.000
    H176    H    0.08186   0.49304   0.61610   1.000
    H177    H    0.58185   0.49304   0.61610   1.000
    H178    H    0.12890   0.46843   0.69050   1.000
    H179    H    0.62889   0.46843   0.69050   1.000
    H180    H    0.48642   0.46253   0.70685   1.000
    H181    H    0.98641   0.46253   0.70684   1.000
    H182    H    0.46620   0.52606   0.76692   1.000
    H183    H    0.96620   0.52605   0.76692   1.000
    H184    H    0.47240   0.57046   0.63442   1.000
    H185    H    0.97239   0.57046   0.63442   1.000
    H186    H    0.04824   0.62610   0.63349   1.000
    H187    H    0.54823   0.62610   0.63349   1.000
    H188    H    0.20666   0.52745   0.60277   1.000
    H189    H    0.70665   0.52745   0.60277   1.000
    H190    H    0.15440   0.60160   0.61540   1.000
    H191    H    0.65440   0.60161   0.61540   1.000
    H192    H    0.30406   0.64755   0.71640   1.000
    H193    H    0.80405   0.64756   0.71640   1.000
    H194    H    0.29015   0.63219   0.62996   1.000
    H195    H    0.79015   0.63219   0.62996   1.000
    H196    H    0.23728   0.47557   0.72460   1.000
    H197    H    0.73728   0.47557   0.72460   1.000
    H198    H    0.31298   0.51307   0.68379   1.000
    H199    H    0.81297   0.51307   0.68379   1.000
    H200    H    0.08186   0.50699   0.38388   1.000
    H201    H    0.58185   0.50699   0.38388   1.000
    H202    H    0.12890   0.53159   0.30950   1.000
    H203    H    0.62889   0.53159   0.30950   1.000
    H204    H    0.48642   0.53749   0.29316   1.000
    H205    H    0.98641   0.53749   0.29316   1.000
    H206    H    0.46620   0.47396   0.23300   1.000
    H207    H    0.96619   0.47396   0.23300   1.000
    H208    H    0.47240   0.42956   0.36559   1.000
    H209    H    0.97240   0.42956   0.36559   1.000
    H210    H    0.04824   0.37392   0.36652   1.000
    H211    H    0.54823   0.37392   0.36652   1.000
    H212    H    0.20666   0.47257   0.39724   1.000
    H213    H    0.70665   0.47257   0.39724   1.000
    H214    H    0.15440   0.39842   0.38461   1.000
    H215    H    0.65440   0.39842   0.38461   1.000
    H216    H    0.30405   0.35246   0.28361   1.000
    H217    H    0.80405   0.35246   0.28361   1.000
    H218    H    0.29016   0.36784   0.37005   1.000
    H219    H    0.79015   0.36784   0.37005   1.000
    H220    H    0.23728   0.52445   0.27541   1.000
    H221    H    0.73728   0.52445   0.27541   1.000
    H222    H    0.31297   0.48695   0.31622   1.000
    H223    H    0.81297   0.48695   0.31622   1.000
    C224    C    0.35939   0.83783   0.98729   1.000
    C225    C    0.85938   0.83784   0.98729   1.000
    C226    C    0.26151   0.75811   0.00000   1.000
    C227    C    0.76150   0.75812   0.00000   1.000
    C228    C    0.30223   0.70289   0.03949   1.000
    C229    C    0.80222   0.70290   0.03900   1.000
    C230    C    0.26259   0.83290   0.90320   1.000
    C231    C    0.76258   0.83290   0.90320   1.000
    C232    C    0.22143   0.79041   0.85050   1.000
    C233    C    0.72143   0.79041   0.85058   1.000
    C234    C    0.42416   0.85919   0.94424   1.000
    C235    C    0.92415   0.85919   0.94424   1.000
    C236    C    0.01121   0.82123   0.86167   1.000
    C237    C    0.51121   0.82123   0.86167   1.000
    C238    C    0.46535   0.82467   0.79698   1.000
    C239    C    0.96535   0.82467   0.79698   1.000
    C240    C    0.01862   0.77932   0.97720   1.000
    C241    C    0.51861   0.77932   0.97720   1.000
    C242    C    0.05392   0.70937   0.96704   1.000
    C243    C    0.55391   0.70937   0.96704   1.000
    C244    C    0.35939   0.16219   0.01273   1.000
    C245    C    0.85939   0.16219   0.01270   1.000
    C246    C    0.26151   0.24191   0.99961   1.000
    C247    C    0.76150   0.24191   0.99961   1.000
    C248    C    0.30224   0.29713   0.96052   1.000
    C249    C    0.80223   0.29713   0.96052   1.000
    C250    C    0.26259   0.16712   0.09673   1.000
    C251    C    0.76258   0.16712   0.09673   1.000
    C252    C    0.22143   0.20961   0.14944   1.000
    C253    C    0.72143   0.20961   0.14944   1.000
    C254    C    0.42416   0.14083   0.05577   1.000
    C255    C    0.92415   0.14083   0.05577   1.000
    C256    C    0.01121   0.17880   0.13830   1.000
    C257    C    0.51121   0.17880   0.13834   1.000
    C258    C    0.46536   0.17535   0.20303   1.000
    C259    C    0.96535   0.17535   0.20303   1.000
    C260    C    0.01862   0.22070   0.02280   1.000
    C261    C    0.51861   0.22071   0.02281   1.000
    C262    C    0.05392   0.29065   0.03297   1.000
    C263    C    0.55391   0.29065   0.03297   1.000
    C264    C    0.35940   0.01273   0.83783   1.000
    C265    C    0.85939   0.01273   0.83783   1.000
    C266    C    0.26151   0.99961   0.75811   1.000
    C267    C    0.76151   0.99961   0.75811   1.000
    C268    C    0.30223   0.96052   0.70289   1.000
    C269    C    0.80223   0.96052   0.70289   1.000
    C270    C    0.26259   0.09673   0.83290   1.000
    C271    C    0.76259   0.09673   0.83290   1.000
    C272    C    0.22144   0.14944   0.79041   1.000
    C273    C    0.72143   0.14944   0.79040   1.000
    C274    C    0.42416   0.05578   0.85919   1.000
    C275    C    0.92416   0.05578   0.85910   1.000
    C276    C    0.01122   0.13835   0.82122   1.000
    C277    C    0.51121   0.13835   0.82122   1.000
    C278    C    0.46536   0.20303   0.82467   1.000
    C279    C    0.96535   0.20304   0.82466   1.000
    C280    C    0.01862   0.02281   0.77931   1.000
    C281    C    0.51862   0.02281   0.77931   1.000
    C282    C    0.05392   0.03298   0.70930   1.000
    C283    C    0.55392   0.03298   0.70930   1.000
    C284    C    0.35938   0.98729   0.16218   1.000
    C285    C    0.85937   0.98729   0.16218   1.000
    C286    C    0.26150   0.00000   0.24190   1.000
    C287    C    0.76150   0.00000   0.24190   1.000
    C288    C    0.30224   0.03950   0.29712   1.000
    C289    C    0.80223   0.03950   0.29712   1.000
    C290    C    0.26258   0.90329   0.16710   1.000
    C291    C    0.76257   0.90329   0.16711   1.000
    C292    C    0.22143   0.85058   0.20961   1.000
    C293    C    0.72142   0.85058   0.20961   1.000
    C294    C    0.42415   0.94424   0.14080   1.000
    C295    C    0.92414   0.94425   0.14080   1.000
    C296    C    0.01121   0.86167   0.17879   1.000
    C297    C    0.51120   0.86167   0.17879   1.000
    C298    C    0.46535   0.79699   0.17530   1.000
    C299    C    0.96534   0.79699   0.17534   1.000
    C300    C    0.01861   0.97721   0.22070   1.000
    C301    C    0.51860   0.97721   0.22070   1.000
    C302    C    0.05391   0.96705   0.29065   1.000
    C303    C    0.55391   0.96704   0.29060   1.000
    C304    C    0.10939   0.33783   0.51274   1.000
    C305    C    0.60939   0.33783   0.51274   1.000
    C306    C    0.01151   0.25811   0.49962   1.000
    C307    C    0.51151   0.25810   0.49962   1.000
    C308    C    0.05224   0.20288   0.46051   1.000
    C309    C    0.55223   0.20288   0.46051   1.000
    C310    C    0.01259   0.33289   0.59674   1.000
    C311    C    0.51259   0.33289   0.59674   1.000
    C312    C    0.47143   0.29040   0.64945   1.000
    C313    C    0.97143   0.29040   0.64945   1.000
    C314    C    0.17416   0.35918   0.55578   1.000
    C315    C    0.67416   0.35918   0.55578   1.000
    C316    C    0.26121   0.32121   0.63835   1.000
    C317    C    0.76121   0.32121   0.63830   1.000
    C318    C    0.21536   0.32466   0.70304   1.000
    C319    C    0.71535   0.32466   0.70304   1.000
    C320    C    0.26861   0.27931   0.52280   1.000
    C321    C    0.76861   0.27931   0.52282   1.000
    C322    C    0.30392   0.20936   0.53298   1.000
    C323    C    0.80391   0.20936   0.53298   1.000
    C324    C    0.10939   0.66219   0.48728   1.000
    C325    C    0.60939   0.66220   0.48720   1.000
    C326    C    0.01151   0.74191   0.50040   1.000
    C327    C    0.51150   0.74192   0.50039   1.000
    C328    C    0.05224   0.79713   0.53951   1.000
    C329    C    0.55223   0.79714   0.53950   1.000
    C330    C    0.01259   0.66713   0.40327   1.000
    C331    C    0.51258   0.66713   0.40327   1.000
    C332    C    0.47143   0.70962   0.35057   1.000
    C333    C    0.97142   0.70962   0.35056   1.000
    C334    C    0.17416   0.64084   0.44423   1.000
    C335    C    0.67415   0.64084   0.44423   1.000
    C336    C    0.26121   0.67881   0.36160   1.000
    C337    C    0.76120   0.67881   0.36166   1.000
    C338    C    0.21536   0.67537   0.29697   1.000
    C339    C    0.71535   0.67536   0.29697   1.000
    C340    C    0.26861   0.72071   0.47720   1.000
    C341    C    0.76861   0.72072   0.47719   1.000
    C342    C    0.30391   0.79066   0.46703   1.000
    C343    C    0.80391   0.79066   0.46703   1.000
    C344    C    0.10940   0.51274   0.66219   1.000
    C345    C    0.60939   0.51274   0.66219   1.000
    C346    C    0.01152   0.49962   0.74191   1.000
    C347    C    0.51151   0.49962   0.74191   1.000
    C348    C    0.05224   0.46051   0.79713   1.000
    C349    C    0.55223   0.46051   0.79713   1.000
    C350    C    0.01259   0.59674   0.66713   1.000
    C351    C    0.51258   0.59674   0.66713   1.000
    C352    C    0.47143   0.64945   0.70962   1.000
    C353    C    0.97142   0.64945   0.70962   1.000
    C354    C    0.17416   0.55579   0.64084   1.000
    C355    C    0.67416   0.55579   0.64084   1.000
    C356    C    0.26121   0.63836   0.67880   1.000
    C357    C    0.76120   0.63836   0.67880   1.000
    C358    C    0.21536   0.70305   0.67536   1.000
    C359    C    0.71535   0.70305   0.67536   1.000
    C360    C    0.26861   0.52282   0.72071   1.000
    C361    C    0.76861   0.52282   0.72071   1.000
    C362    C    0.30392   0.53299   0.79060   1.000
    C363    C    0.80391   0.53299   0.79066   1.000
    C364    C    0.10939   0.48728   0.33782   1.000
    C365    C    0.60938   0.48728   0.33782   1.000
    C366    C    0.01151   0.50040   0.25810   1.000
    C367    C    0.51150   0.50040   0.25810   1.000
    C368    C    0.05224   0.53951   0.20288   1.000
    C369    C    0.55223   0.53951   0.20288   1.000
    C370    C    0.01259   0.40328   0.33289   1.000
    C371    C    0.51258   0.40328   0.33289   1.000
    C372    C    0.47143   0.35057   0.29000   1.000
    C373    C    0.97142   0.35057   0.29000   1.000
    C374    C    0.17416   0.44424   0.35918   1.000
    C375    C    0.67415   0.44424   0.35918   1.000
    C376    C    0.26121   0.36166   0.32121   1.000
    C377    C    0.76120   0.36166   0.32121   1.000
    C378    C    0.21536   0.29698   0.32466   1.000
    C379    C    0.71535   0.29698   0.32465   1.000
    C380    C    0.26861   0.47720   0.27930   1.000
    C381    C    0.76861   0.47720   0.27930   1.000
    C382    C    0.30391   0.46704   0.20930   1.000
    C383    C    0.80391   0.46704   0.20930   1.000
    N384    N    0.30726   0.79404   0.95115   1.000
    N385    N    0.80725   0.79404   0.95115   1.000
    N386    N    0.47013   0.80207   0.92241   1.000
    N387    N    0.97012   0.80207   0.92241   1.000
    N388    N    0.30726   0.20598   0.04886   1.000
    N389    N    0.80725   0.20598   0.04886   1.000
    N390    N    0.47013   0.19795   0.07760   1.000
    N391    N    0.97013   0.19796   0.07760   1.000
    N392    N    0.30726   0.04887   0.79404   1.000
    N393    N    0.80726   0.04887   0.79404   1.000
    N394    N    0.47014   0.07761   0.80206   1.000
    N395    N    0.97013   0.07761   0.80206   1.000
    N396    N    0.30725   0.95115   0.20597   1.000
    N397    N    0.80724   0.95115   0.20597   1.000
    N398    N    0.47013   0.92241   0.19795   1.000
    N399    N    0.97012   0.92241   0.19795   1.000
    N400    N    0.05726   0.29403   0.54880   1.000
    N401    N    0.55726   0.29403   0.54887   1.000
    N402    N    0.22014   0.30206   0.57761   1.000
    N403    N    0.72013   0.30206   0.57761   1.000
    N404    N    0.05726   0.70598   0.45114   1.000
    N405    N    0.55725   0.70599   0.45114   1.000
    N406    N    0.22013   0.69797   0.42240   1.000
    N407    N    0.72013   0.69796   0.42240   1.000
    N408    N    0.05726   0.54888   0.70598   1.000
    N409    N    0.55726   0.54888   0.70598   1.000
    N410    N    0.22013   0.57762   0.69796   1.000
    N411    N    0.72013   0.57762   0.69796   1.000
    N412    N    0.05726   0.45114   0.29403   1.000
    N413    N    0.55725   0.45114   0.29403   1.000
    N414    N    0.22013   0.42240   0.30205   1.000
    N415    N    0.72013   0.42240   0.30205   1.000
    O416    O    0.36193   0.67989   0.01690   1.000
    O417    O    0.86192   0.67989   0.01690   1.000
    O418    O    0.27214   0.68313   0.09446   1.000
    O419    O    0.77213   0.68313   0.09446   1.000
    O420    O    0.23452   0.72694   0.84776   1.000
    O421    O    0.73451   0.72694   0.84776   1.000
    O422    O    0.17734   0.82261   0.81350   1.000
    O423    O    0.67733   0.82261   0.81350   1.000
    O424    O    0.40013   0.80274   0.79714   1.000
    O425    O    0.90012   0.80274   0.79714   1.000
    O426    O    0.49652   0.84949   0.74489   1.000
    O427    O    0.99651   0.84949   0.74489   1.000
    O428    O    0.10008   0.69185   0.01113   1.000
    O429    O    0.60007   0.69185   0.01113   1.000
    O430    O    0.03484   0.67457   0.91542   1.000
    O431    O    0.53483   0.67457   0.91542   1.000
    O432    O    0.36194   0.32012   0.98311   1.000
    O433    O    0.86193   0.32013   0.98311   1.000
    O434    O    0.27215   0.31689   0.90555   1.000
    O435    O    0.77214   0.31690   0.90550   1.000
    O436    O    0.23452   0.27308   0.15225   1.000
    O437    O    0.73451   0.27308   0.15225   1.000
    O438    O    0.17734   0.17741   0.18651   1.000
    O439    O    0.67733   0.17741   0.18651   1.000
    O440    O    0.40013   0.19728   0.20287   1.000
    O441    O    0.90012   0.19728   0.20287   1.000
    O442    O    0.49652   0.15053   0.25512   1.000
    O443    O    0.99651   0.15052   0.25510   1.000
    O444    O    0.10009   0.30817   0.98888   1.000
    O445    O    0.60008   0.30817   0.98888   1.000
    O446    O    0.03484   0.32545   0.08459   1.000
    O447    O    0.53483   0.32545   0.08459   1.000
    O448    O    0.36194   0.98311   0.67989   1.000
    O449    O    0.86192   0.98312   0.67989   1.000
    O450    O    0.27214   0.90556   0.68313   1.000
    O451    O    0.77213   0.90556   0.68312   1.000
    O452    O    0.23452   0.15226   0.72694   1.000
    O453    O    0.73452   0.15225   0.72694   1.000
    O454    O    0.17734   0.18651   0.82260   1.000
    O455    O    0.67734   0.18651   0.82260   1.000
    O456    O    0.40014   0.20288   0.80273   1.000
    O457    O    0.90012   0.20288   0.80274   1.000
    O458    O    0.49652   0.25512   0.84948   1.000
    O459    O    0.99651   0.25512   0.84900   1.000
    O460    O    0.10008   0.98889   0.69185   1.000
    O461    O    0.60007   0.98888   0.69185   1.000
    O462    O    0.03484   0.08460   0.67457   1.000
    O463    O    0.53483   0.08459   0.67457   1.000
    O464    O    0.36194   0.01691   0.32012   1.000
    O465    O    0.86193   0.01691   0.32012   1.000
    O466    O    0.27214   0.09446   0.31689   1.000
    O467    O    0.77214   0.09446   0.31689   1.000
    O468    O    0.23451   0.84777   0.27307   1.000
    O469    O    0.73451   0.84777   0.27307   1.000
    O470    O    0.17733   0.81351   0.17741   1.000
    O471    O    0.67733   0.81351   0.17741   1.000
    O472    O    0.40013   0.79714   0.19728   1.000
    O473    O    0.90012   0.79714   0.19728   1.000
    O474    O    0.49651   0.74490   0.15052   1.000
    O475    O    0.99651   0.74490   0.15052   1.000
    O476    O    0.10009   0.01114   0.30816   1.000
    O477    O    0.60008   0.01114   0.30816   1.000
    O478    O    0.03483   0.91543   0.32544   1.000
    O479    O    0.53482   0.91543   0.32544   1.000
    O480    O    0.11194   0.17988   0.48310   1.000
    O481    O    0.61194   0.17989   0.48310   1.000
    O482    O    0.02215   0.18312   0.40550   1.000
    O483    O    0.52214   0.18312   0.40554   1.000
    O484    O    0.48452   0.22693   0.65226   1.000
    O485    O    0.98451   0.22693   0.65226   1.000
    O486    O    0.42734   0.32260   0.68652   1.000
    O487    O    0.92733   0.32260   0.68652   1.000
    O488    O    0.15014   0.30273   0.70280   1.000
    O489    O    0.65013   0.30273   0.70288   1.000
    O490    O    0.24652   0.34948   0.75513   1.000
    O491    O    0.74652   0.34949   0.75513   1.000
    O492    O    0.35009   0.19184   0.48887   1.000
    O493    O    0.85008   0.19184   0.48887   1.000
    O494    O    0.28484   0.17457   0.58460   1.000
    O495    O    0.78483   0.17456   0.58460   1.000
    O496    O    0.11193   0.82014   0.51691   1.000
    O497    O    0.61193   0.82013   0.51691   1.000
    O498    O    0.02214   0.81691   0.59440   1.000
    O499    O    0.52214   0.81690   0.59447   1.000
    O500    O    0.48451   0.77309   0.34775   1.000
    O501    O    0.98451   0.77309   0.34775   1.000
    O502    O    0.42733   0.67742   0.31349   1.000
    O503    O    0.92733   0.67742   0.31349   1.000
    O504    O    0.15013   0.69729   0.29713   1.000
    O505    O    0.65013   0.69730   0.29713   1.000
    O506    O    0.24652   0.65053   0.24489   1.000
    O507    O    0.74651   0.65054   0.24488   1.000
    O508    O    0.35008   0.80818   0.51114   1.000
    O509    O    0.85007   0.80818   0.51114   1.000
    O510    O    0.28483   0.82546   0.41541   1.000
    O511    O    0.78482   0.82546   0.41541   1.000
    O512    O    0.11193   0.48311   0.82014   1.000
    O513    O    0.61193   0.48310   0.82013   1.000
    O514    O    0.02215   0.40555   0.81690   1.000
    O515    O    0.52214   0.40555   0.81690   1.000
    O516    O    0.48452   0.65227   0.77308   1.000
    O517    O    0.98451   0.65226   0.77308   1.000
    O518    O    0.42733   0.68652   0.67742   1.000
    O519    O    0.92733   0.68652   0.67742   1.000
    O520    O    0.15013   0.70289   0.69728   1.000
    O521    O    0.65012   0.70289   0.69729   1.000
    O522    O    0.24652   0.75513   0.65052   1.000
    O523    O    0.74651   0.75513   0.65053   1.000
    O524    O    0.35008   0.48888   0.80817   1.000
    O525    O    0.85008   0.48887   0.80817   1.000
    O526    O    0.28484   0.58461   0.82545   1.000
    O527    O    0.78483   0.58460   0.82545   1.000
    O528    O    0.11194   0.51692   0.17988   1.000
    O529    O    0.61193   0.51692   0.17988   1.000
    O530    O    0.02214   0.59447   0.18311   1.000
    O531    O    0.52214   0.59447   0.18311   1.000
    O532    O    0.48452   0.34776   0.22693   1.000
    O533    O    0.98451   0.34776   0.22693   1.000
    O534    O    0.42734   0.31350   0.32259   1.000
    O535    O    0.92733   0.31350   0.32259   1.000
    O536    O    0.15014   0.29713   0.30272   1.000
    O537    O    0.65013   0.29713   0.30272   1.000
    O538    O    0.24652   0.24489   0.34948   1.000
    O539    O    0.74652   0.24489   0.34948   1.000
    O540    O    0.35008   0.51115   0.19184   1.000
    O541    O    0.85007   0.51115   0.19184   1.000
    O542    O    0.28483   0.41542   0.17456   1.000
    O543    O    0.78483   0.41542   0.17456   1.000
loop_
    _geom_bond_atom_site_label_1
    _geom_bond_atom_site_label_2
    _geom_bond_distance
    _geom_bond_site_symmetry_2
    _ccdc_geom_bond_type
    C227   H37       1.11255      .   S
    C227   C229      1.53034      .   S
    C227   N385      1.46271  1_554   S
    C227   H39       1.09508  1_554   S
    C226   H36       1.11253      .   S
    C226   C228      1.53525      .   S
    C226   N384      1.46272  1_554   S
    C226   H38       1.09507  1_554   S
    H33    C225      1.11100  1_554   S
    H32    C224      1.11100  1_554   S
    O429   C243      1.26312  1_554   S
    O428   C242      1.26312  1_554   S
    C245   N389      1.47423      .   S
    C245   C255      1.52105      .   S
    C245   H59       1.09795  1_554   S
    C245   H57       1.11078  1_554   S
    C244   N388      1.47394      .   S
    C244   C254      1.52073      .   S
    C244   H58       1.09842  1_554   S
    C244   H56       1.11098  1_554   S
    H79    C261      1.10971      .   S
    H78    C260      1.10967      .   S
    O416   C228      1.26685      .   S
    O416   Ba2       2.80870  1_554   S
    O417   C229      1.26346      .   S
    O417   Ba3       2.80870  1_554   S
    C260   C262      1.53929      .   S
    C260   N391      1.47151  1_455   S
    C260   H76       1.09836  1_454   S
    C261   C263      1.53925      .   S
    C261   N390      1.47125      .   S
    C261   H77       1.09853  1_554   S
    H52    C240      1.09863  1_654   S
    H53    C241      1.09863  1_554   S
    H63    C247      1.09881  1_554   S
    H62    C246      1.09889  1_554   S
    H69    C255      1.11089      .   S
    H68    C254      1.11090      .   S
    H35    C225      1.09711  1_554   S
    H34    C224      1.09710  1_554   S
    C263   O447      1.27876      .   S
    C263   O445      1.26325  1_554   S
    C262   O446      1.27875      .   S
    C262   O444      1.26326  1_554   S
    C229   O419      1.28760      .   S
    C228   O418      1.27934      .   S
    N388   C250      1.46808      .   S
    N388   C246      1.46799  1_554   S
    N389   C251      1.46805      .   S
    N389   C247      1.46798  1_554   S
    C255   N391      1.47338      .   S
    C255   H71       1.09699      .   S
    C254   N390      1.47338      .   S
    C254   H70       1.09697      .   S
    H65    C251      1.10971      .   S
    H64    C250      1.10934      .   S
    N391   C256      1.46612  1_655   S
    N390   C257      1.46664      .   S
    O418   Ba20      2.75104      .   S
    O419   Ba21      2.75101      .   S
    C250   H66       1.09799      .   S
    C250   C252      1.53594      .   S
    C251   H67       1.09799      .   S
    C251   C253      1.53595      .   S
    H116   C294      1.11066      .   S
    H117   C295      1.11065      .   S
    H118   C294      1.09672      .   S
    H119   C295      1.09672      .   S
    H104   C284      1.11130  1_545   S
    H105   C285      1.11097  1_545   S
    Ba6    O440      2.81393      .   S
    Ba6    O432      2.80867  1_554   S
    Ba7    O441      2.81397      .   S
    Ba7    O433      2.80868  1_554   S
    H123   C297      1.10812      .   S
    H122   C296      1.10814      .   S
    H75    C257      1.10820      .   S
    H74    C256      1.10813      .   S
    H114   C290      1.09783      .   S
    H115   C291      1.09797      .   S
    H112   C290      1.10909      .   S
    H113   C291      1.10921      .   S
    C256   H72       1.09677      .   S
    C256   C259      1.53229  1_455   S
    C257   H73       1.09649      .   S
    C257   C258      1.53150      .   S
    C294   C284      1.52092      .   S
    C294   N398      1.47379      .   S
    C295   C285      1.52091      .   S
    C295   N399      1.47382      .   S
    Ba21   O471      2.73580      .   S
    Ba20   O470      2.73583      .   S
    C253   O437      1.27791      .   S
    C253   O439      1.26305      .   S
    C252   O436      1.27791      .   S
    C252   O438      1.26304      .   S
    O474   C298      1.27492      .   S
    O475   C299      1.27525      .   S
    C285   H107      1.09760  1_565   S
    C285   N397      1.47400      .   S
    C284   H106      1.09759  1_565   S
    C284   N396      1.47400      .   S
    C290   N396      1.46810      .   S
    C290   C292      1.53614      .   S
    C291   N397      1.46799      .   S
    C291   C293      1.53602      .   S
    O543   C383      1.27813      .   S
    O542   C382      1.27813      .   S
    C298   C297      1.53147      .   S
    C298   O472      1.27280      .   S
    C299   C296      1.53158  1_655   S
    C299   O473      1.27249      .   S
    O470   C292      1.26307      .   S
    O471   C293      1.26306      .   S
    C297   N398      1.46666      .   S
    C297   H121      1.09661      .   S
    C296   N399      1.46677  1_455   S
    C296   H120      1.09660      .   S
    O529   Ba31      2.80911      .   S
    O529   C369      1.26689      .   S
    O528   Ba30      2.80909      .   S
    O528   C368      1.26687      .   S
    O531   Ba12      2.75101      .   S
    O531   C369      1.27925      .   S
    O530   Ba13      2.75112  1_455   S
    O530   C368      1.27925      .   S
    H126   C300      1.10965      .   S
    H127   C301      1.10965      .   S
    Ba13   O503      2.74665      .   S
    Ba12   O502      2.73563      .   S
    Ba30   O536      2.81391      .   S
    Ba31   O537      2.81390      .   S
    O438   Ba28      2.73561      .   S
    O439   Ba29      2.73579      .   S
    O540   C382      1.26320      .   S
    O541   C383      1.26319      .   S
    O472   Ba14      2.81390      .   S
    O473   Ba15      2.81390      .   S
    N398   C301      1.47136      .   S
    N399   C300      1.47151  1_655   S
    O441   C259      1.27248      .   S
    O440   C258      1.27247      .   S
    C368   C366      1.53148      .   S
    C369   C367      1.53146      .   S
    C259   O443      1.27501      .   S
    C258   O442      1.27532      .   S
    N397   C287      1.46272  1_565   S
    N396   C286      1.46273  1_565   S
    H109   C287      1.11343      .   S
    H108   C286      1.11340      .   S
    C382   C380      1.54024      .   S
    C383   C381      1.54023      .   S
    C292   O468      1.27776      .   S
    C293   O469      1.27775      .   S
    C300   H124      1.09844  1_465   S
    C300   C302      1.53935      .   S
    C301   H125      1.09844  1_565   S
    C301   C303      1.53847      .   S
    O533   C373      1.27019      .   S
    O532   C372      1.27020      .   S
    H207   C366      1.09992  1_655   S
    H206   C367      1.09974      .   S
    C286   H110      1.09512  1_545   S
    C286   C288      1.53545      .   S
    C287   H111      1.09508  1_545   S
    C287   C289      1.53547      .   S
    O507   C339      1.27529      .   S
    O506   C338      1.27523      .   S
    C367   H204      1.10838      .   S
    C367   N413      1.46808      .   S
    C366   H205      1.10847  1_455   S
    C366   N412      1.46809      .   S
    H220   C380      1.09887      .   S
    H221   C381      1.09887      .   S
    C380   N414      1.47135      .   S
    C380   H222      1.10966      .   S
    C381   N415      1.47134      .   S
    C381   H223      1.10966      .   S
    H217   C377      1.09662      .   S
    H216   C376      1.09659      .   S
    C373   O535      1.26696      .   S
    C373   C370      1.54037  1_655   S
    C372   O534      1.26696      .   S
    C372   C371      1.54024      .   S
    C303   O477      1.26357  1_565   S
    C303   O479      1.27917      .   S
    C302   O476      1.26328  1_565   S
    C302   O478      1.27868      .   S
    N413   C371      1.46800      .   S
    N413   C365      1.47400      .   S
    N412   C370      1.46799      .   S
    N412   C364      1.47400      .   S
    C339   O505      1.27248      .   S
    C339   C337      1.53150      .   S
    C338   O504      1.27248      .   S
    C338   C336      1.53051      .   S
    C288   O466      1.27926      .   S
    C288   O464      1.26690      .   S
    C289   O467      1.27923      .   S
    C289   O465      1.26684      .   S
    O505   Ba23      2.81389      .   S
    O504   Ba22      2.81404      .   S
    N415   C377      1.46666      .   S
    N415   C375      1.47350      .   S
    N414   C376      1.46666      .   S
    N414   C374      1.47351      .   S
    O536   C378      1.27251      .   S
    O537   C379      1.27248      .   S
    H203   C365      1.09886      .   S
    H202   C364      1.09887      .   S
    O502   C332      1.26315      .   S
    O503   C333      1.26303      .   S
    Ba14   O464      2.80870  1_565   S
    Ba15   O465      2.80867  1_565   S
    Ba28   O466      2.75101      .   S
    Ba29   O467      2.75102      .   S
    C376   C378      1.53142      .   S
    C376   H218      1.10814      .   S
    C377   C379      1.53141      .   S
    C377   H219      1.10812      .   S
    O534   Ba4       2.73580      .   S
    O535   Ba5       2.73552      .   S
    C379   O539      1.27530      .   S
    C378   O538      1.27524      .   S
    C371   H208      1.10919      .   S
    C371   H211      1.09798      .   S
    C370   H209      1.10936  1_455   S
    C370   H210      1.09796      .   S
    C364   C374      1.52080      .   S
    C364   H200      1.11118      .   S
    C365   C375      1.52081      .   S
    C365   H201      1.11118      .   S
    O500   C332      1.27792      .   S
    O501   C333      1.27791      .   S
    C333   C330      1.53606  1_655   S
    C332   C331      1.53581      .   S
    H169   C337      1.09666      .   S
    H168   C336      1.09645      .   S
    Ba5    O482      2.75149  1_655   S
    Ba4    O483      2.75101      .   S
    C374   H214      1.09690      .   S
    C374   H212      1.11092      .   S
    C375   H215      1.09691      .   S
    C375   H213      1.11091      .   S
    C336   H170      1.10829      .   S
    C336   N406      1.46760      .   S
    C337   H171      1.10820      .   S
    C337   N407      1.46664      .   S
    H163   C331      1.09798      .   S
    H162   C330      1.09799      .   S
    Ba23   O497      2.80908      .   S
    Ba22   O496      2.80910      .   S
    H167   C335      1.09698      .   S
    H166   C334      1.09700      .   S
    C331   H160      1.10935      .   S
    C331   N405      1.46808      .   S
    C330   H161      1.10948  1_455   S
    C330   N404      1.46805      .   S
    O482   C308      1.28002      .   S
    O483   C309      1.27935      .   S
    O510   C342      1.27872      .   S
    O511   C343      1.27878      .   S
    N406   C334      1.47339      .   S
    N406   C340      1.47135      .   S
    N407   C335      1.47338      .   S
    N407   C341      1.47126      .   S
    C335   H165      1.11090      .   S
    C335   C325      1.51994      .   S
    C334   H164      1.11090      .   S
    C334   C324      1.52080      .   S
    N405   C325      1.47330      .   S
    N405   C327      1.46798      .   S
    N404   C324      1.47403      .   S
    N404   C326      1.46806      .   S
    C309   O481      1.26685      .   S
    C309   C307      1.53147      .   S
    C308   O480      1.26685      .   S
    C308   C306      1.53148      .   S
    H132   C307      1.10845      .   S
    H133   C306      1.10854  1_655   S
    C342   C340      1.53930      .   S
    C342   O508      1.26350      .   S
    C343   C341      1.53925      .   S
    C343   O509      1.26344      .   S
    H130   C304      1.09871      .   S
    H131   C305      1.09870      .   S
    H159   C326      1.09912  1_655   S
    H158   C327      1.09880      .   S
    H149   C321      1.09891      .   S
    H148   C320      1.09858      .   S
    C341   H175      1.10970      .   S
    C341   H173      1.09891      .   S
    C340   H174      1.10968      .   S
    C340   H172      1.09875      .   S
    O480   Ba18      2.80908      .   S
    O481   Ba19      2.80908      .   S
    C325   H153      1.11165      .   S
    C325   H155      1.09854      .   S
    C324   H152      1.11111      .   S
    C324   H154      1.09731      .   S
    O493   C323      1.26345      .   S
    O492   C322      1.26347      .   S
    H128   C304      1.11116      .   S
    H129   C305      1.11117      .   S
    C306   H135      1.09899  1_455   S
    C306   N400      1.46705      .   S
    C307   H134      1.09833      .   S
    C307   N401      1.46797      .   S
    C327   H156      1.10737      .   S
    C327   C329      1.53149      .   S
    C326   H157      1.10848  1_455   S
    C326   C328      1.53147      .   S
    C304   N400      1.47327      .   S
    C304   C314      1.52072      .   S
    C305   N401      1.47396      .   S
    C305   C315      1.52072      .   S
    H150   C320      1.10962      .   S
    H151   C321      1.10970      .   S
    O497   C329      1.26686      .   S
    O496   C328      1.26683      .   S
    C320   C322      1.53933      .   S
    C320   N402      1.47154      .   S
    C321   C323      1.53926      .   S
    C321   N403      1.47124      .   S
    H141   C315      1.11089      .   S
    H140   C314      1.11092      .   S
    C323   O495      1.27876      .   S
    C322   O494      1.27873      .   S
    C329   O499      1.27932      .   S
    C328   O498      1.27811      .   S
    N400   C310      1.46896      .   S
    N401   C311      1.46807      .   S
    C315   N403      1.47339      .   S
    C315   H143      1.09698      .   S
    C314   N402      1.47337      .   S
    C314   H142      1.09697      .   S
    H136   C311      1.10934      .   S
    H137   C310      1.10950  1_655   S
    N402   C316      1.46665      .   S
    N403   C317      1.46584      .   S
    O498   Ba1       2.75168  1_455   S
    O499   Ba0       2.75101      .   S
    C310   H138      1.09799      .   S
    C310   C313      1.53606  1_455   S
    C311   H139      1.09798      .   S
    C311   C312      1.53594      .   S
    H188   C354      1.11101      .   S
    H189   C355      1.11103      .   S
    H190   C354      1.09699      .   S
    H191   C355      1.09699      .   S
    H176   C344      1.11172      .   S
    H177   C345      1.11170      .   S
    Ba18   O488      2.81305      .   S
    Ba19   O489      2.81395      .   S
    H195   C357      1.10811      .   S
    H194   C356      1.10807      .   S
    H146   C316      1.10820      .   S
    H147   C317      1.10809      .   S
    H187   C351      1.09806      .   S
    H186   C350      1.09804      .   S
    H185   C350      1.10948  1_655   S
    H184   C351      1.10931      .   S
    C317   H145      1.09681      .   S
    C317   C319      1.53232      .   S
    C316   H144      1.09645      .   S
    C316   C318      1.53149      .   S
    C355   C345      1.52079      .   S
    C355   N411      1.47331      .   S
    C354   C344      1.52077      .   S
    C354   N410      1.47332      .   S
    Ba1    O519      2.73581      .   S
    Ba0    O518      2.73573      .   S
    C313   O485      1.27790      .   S
    C313   O487      1.26306      .   S
    C312   O484      1.27791      .   S
    C312   O486      1.26305      .   S
    O522   C358      1.27528      .   S
    O523   C359      1.27528      .   S
    C344   H178      1.09872      .   S
    C344   N408      1.47402      .   S
    C345   H179      1.09874      .   S
    C345   N409      1.47401      .   S
    C350   N408      1.46796      .   S
    C350   C353      1.53604  1_455   S
    C351   N409      1.46793      .   S
    C351   C352      1.53591      .   S
    O462   C282      1.27802      .   S
    O463   C283      1.27801      .   S
    C359   C357      1.53141      .   S
    C359   O521      1.27250      .   S
    C358   C356      1.53142      .   S
    C358   O520      1.27248      .   S
    O519   C353      1.26306      .   S
    O518   C352      1.26307      .   S
    C357   N411      1.46667      .   S
    C357   H193      1.09661      .   S
    C356   N410      1.46667      .   S
    C356   H192      1.09665      .   S
    O448   Ba10      2.80881  1_565   S
    O448   C268      1.26690      .   S
    O449   Ba11      2.80866  1_565   S
    O449   C269      1.26683      .   S
    O451   Ba25      2.75103      .   S
    O451   C269      1.27921      .   S
    O450   Ba24      2.75106      .   S
    O450   C268      1.27922      .   S
    H198   C360      1.10966      .   S
    H199   C361      1.10965      .   S
    Ba24   O422      2.73580      .   S
    Ba25   O423      2.73580      .   S
    Ba11   O457      2.81408      .   S
    Ba10   O456      2.81391      .   S
    O486   Ba8       2.73578      .   S
    O487   Ba9       2.73580      .   S
    O461   C283      1.26273  1_565   S
    O460   C282      1.26276  1_565   S
    O520   Ba26      2.81406      .   S
    O521   Ba27      2.81390      .   S
    N411   C361      1.47139      .   S
    N410   C360      1.47138      .   S
    O488   C318      1.27248      .   S
    O489   C319      1.27249      .   S
    C268   C266      1.53118      .   S
    C269   C267      1.53116      .   S
    C318   O490      1.27532      .   S
    C319   O491      1.27532      .   S
    N408   C346      1.46807      .   S
    N409   C347      1.46807      .   S
    H181   C346      1.10859  1_655   S
    H180   C347      1.10837      .   S
    C283   C281      1.54042      .   S
    C282   C280      1.54040      .   S
    C353   O517      1.27777      .   S
    C352   O516      1.27776      .   S
    C360   H196      1.09887      .   S
    C360   C362      1.53829      .   S
    C361   H197      1.09885      .   S
    C361   C363      1.53935      .   S
    O452   C272      1.27794      .   S
    O453   C273      1.27776      .   S
    H87    C267      1.09889  1_545   S
    H86    C266      1.09890  1_545   S
    C347   H182      1.09892      .   S
    C347   C349      1.53146      .   S
    C346   H183      1.09901  1_455   S
    C346   C348      1.53146      .   S
    O427   C239      1.27529      .   S
    O426   C238      1.27528      .   S
    C266   H84       1.10817      .   S
    C266   N392      1.46809  1_565   S
    C267   H85       1.10829      .   S
    C267   N393      1.46807  1_565   S
    H101   C281      1.09863  1_565   S
    H100   C280      1.09861  1_665   S
    C281   N394      1.47133      .   S
    C281   H103      1.10965      .   S
    C280   N395      1.47151  1_455   S
    C280   H102      1.10967      .   S
    H97    C277      1.09658      .   S
    H96    C276      1.09664      .   S
    C273   O455      1.26306      .   S
    C273   C271      1.53602      .   S
    C272   O454      1.26298      .   S
    C272   C270      1.53591      .   S
    C362   O524      1.26378      .   S
    C362   O526      1.27930      .   S
    C363   O525      1.26345      .   S
    C363   O527      1.27864      .   S
    N392   C270      1.46798      .   S
    N392   C264      1.47401      .   S
    N393   C271      1.46805      .   S
    N393   C265      1.47402      .   S
    C239   O425      1.27248      .   S
    C239   C236      1.53163  1_655   S
    C238   O424      1.27250      .   S
    C238   C237      1.53150      .   S
    C349   O515      1.27924      .   S
    C349   O513      1.26684      .   S
    C348   O514      1.27918      .   S
    C348   O512      1.26685      .   S
    O424   Ba2       2.81388      .   S
    O425   Ba3       2.81393      .   S
    N394   C277      1.46666      .   S
    N394   C274      1.47349      .   S
    N395   C276      1.46678  1_655   S
    N395   C275      1.47212      .   S
    O456   C278      1.27248      .   S
    O457   C279      1.27246      .   S
    H83    C265      1.09856  1_565   S
    H82    C264      1.09829  1_565   S
    O423   C233      1.26315      .   S
    O422   C232      1.26224      .   S
    Ba26   O512      2.80901      .   S
    Ba27   O513      2.80909      .   S
    Ba8    O515      2.75101      .   S
    Ba9    O514      2.75127  1_655   S
    C276   C279      1.53155  1_455   S
    C276   H98       1.10809      .   S
    C277   C278      1.53143      .   S
    C277   H99       1.10817      .   S
    O454   Ba16      2.73583      .   S
    O455   Ba17      2.73543      .   S
    C279   O459      1.27155      .   S
    C278   O458      1.27521      .   S
    C270   H88       1.10921      .   S
    C270   H90       1.09796      .   S
    C271   H89       1.10919      .   S
    C271   H91       1.09794      .   S
    C265   C275      1.52033      .   S
    C265   H81       1.11115  1_545   S
    C264   C274      1.52080      .   S
    C264   H80       1.11111  1_545   S
    O421   C233      1.27792      .   S
    O420   C232      1.27786      .   S
    C232   C230      1.53579      .   S
    C233   C231      1.53474      .   S
    H48    C236      1.09665      .   S
    H49    C237      1.09664      .   S
    Ba17   O435      2.75125      .   S
    Ba16   O434      2.75099      .   S
    C275   H95       1.09771      .   S
    C275   H93       1.11210      .   S
    C274   H94       1.09691      .   S
    C274   H92       1.11093      .   S
    C237   H51       1.10820      .   S
    C237   N386      1.46664      .   S
    C236   H50       1.10821      .   S
    C236   N387      1.46677  1_455   S
    H42    C230      1.09715      .   S
    H43    C231      1.09713      .   S
    H46    C234      1.09696      .   S
    H47    C235      1.09696      .   S
    C231   H41       1.11008      .   S
    C231   N385      1.46911      .   S
    C230   H40       1.11007      .   S
    C230   N384      1.46911      .   S
    O435   C249      1.28020      .   S
    O434   C248      1.27931      .   S
    O430   C242      1.27876      .   S
    O431   C243      1.27876      .   S
    N386   C234      1.47338      .   S
    N386   C241      1.47125      .   S
    N387   C235      1.47337      .   S
    N387   C240      1.47141  1_655   S
    C235   H45       1.11092      .   S
    C235   C225      1.52084      .   S
    C234   H44       1.11092      .   S
    C234   C224      1.52084      .   S
    N385   C225      1.47403      .   S
    N384   C224      1.47405      .   S
    C248   O432      1.26686      .   S
    C248   C246      1.53134      .   S
    C249   O433      1.26684      .   S
    C249   C247      1.53132      .   S
    H61    C247      1.10816      .   S
    H60    C246      1.10811      .   S
    C242   C240      1.53926      .   S
    C243   C241      1.53926      .   S
    C241   H55       1.10970      .   S
    C240   H54       1.10970      .   S
    O418   Ba12      2.79948      .   S
    O419   Ba13      2.79195      .   S
    O420   Ba2       2.89349      .   S
    O420   Ba26      2.84008      .   S
    O421   Ba3       2.89344      .   S
    O421   Ba27      2.84006      .   S
    O424   Ba0       2.98396      .   S
    O425   Ba1       2.98416      .   S
    O426   Ba0       2.90891      .   S
    O426   Ba25      2.78042      .   S
    O427   Ba1       2.90909      .   S
    O427   Ba24      2.78061  1_655   S
    O428   Ba20      2.76526      .   S
    O429   Ba21      2.76526      .   S
    O430   Ba3       2.90545  1_455   S
    O430   Ba26      2.86079      .   S
    O431   Ba2       2.90519      .   S
    O431   Ba27      2.86082      .   S
    O434   Ba8       2.79937      .   S
    O435   Ba9       2.79870      .   S
    O436   Ba6       2.89348      .   S
    O436   Ba30      2.84001      .   S
    O437   Ba7       2.89346      .   S
    O437   Ba31      2.84001      .   S
    O440   Ba4       2.98395      .   S
    O441   Ba5       2.98258      .   S
    O442   Ba4       2.90890      .   S
    O442   Ba29      2.78041      .   S
    O443   Ba5       2.90826      .   S
    O443   Ba28      2.78074  1_655   S
    O444   Ba16      2.76506      .   S
    O445   Ba17      2.76679      .   S
    O446   Ba7       2.90544  1_455   S
    O446   Ba30      2.86085      .   S
    O447   Ba6       2.90520      .   S
    O447   Ba31      2.86086      .   S
    O450   Ba0       2.79945      .   S
    O451   Ba1       2.79945      .   S
    O452   Ba10      2.89354      .   S
    O452   Ba18      2.84003      .   S
    O453   Ba11      2.89342      .   S
    O453   Ba19      2.84007      .   S
    O456   Ba8       2.98397      .   S
    O457   Ba9       2.98398      .   S
    O458   Ba8       2.90894      .   S
    O458   Ba17      2.78037      .   S
    O459   Ba9       2.90682      .   S
    O459   Ba16      2.78090  1_655   S
    O460   Ba24      2.76515      .   S
    O461   Ba25      2.76512      .   S
    O462   Ba11      2.90549  1_455   S
    O462   Ba18      2.86079      .   S
    O463   Ba10      2.90513      .   S
    O463   Ba19      2.86085      .   S
    O466   Ba4       2.79942      .   S
    O467   Ba5       2.79906      .   S
    O468   Ba14      2.89348      .   S
    O468   Ba22      2.84010      .   S
    O469   Ba15      2.89348      .   S
    O469   Ba23      2.84004      .   S
    O472   Ba12      2.98399      .   S
    O473   Ba13      2.98497      .   S
    O474   Ba12      2.90908      .   S
    O474   Ba21      2.78043      .   S
    O475   Ba13      2.90634      .   S
    O475   Ba20      2.78061  1_655   S
    O476   Ba28      2.76516      .   S
    O477   Ba29      2.76515      .   S
    O478   Ba15      2.90545  1_455   S
    O478   Ba22      2.86076      .   S
    O479   Ba14      2.90520      .   S
    O479   Ba23      2.86084      .   S
    O482   Ba28      2.79896      .   S
    O483   Ba29      2.79933      .   S
    O484   Ba10      2.84001      .   S
    O484   Ba19      2.89345      .   S
    O485   Ba11      2.84007      .   S
    O485   Ba18      2.89370  1_655   S
    O488   Ba16      2.98572      .   S
    O489   Ba17      2.98238      .   S
    O490   Ba8       2.78046      .   S
    O490   Ba16      2.90906      .   S
    O491   Ba9       2.78041      .   S
    O491   Ba17      2.90786      .   S
    O492   Ba4       2.76525      .   S
    O493   Ba5       2.76660      .   S
    O494   Ba10      2.86086      .   S
    O494   Ba18      2.90521      .   S
    O495   Ba11      2.86080      .   S
    O495   Ba19      2.90523      .   S
    O498   Ba24      2.80024      .   S
    O499   Ba25      2.79936      .   S
    O500   Ba14      2.84002      .   S
    O500   Ba23      2.89348      .   S
    O501   Ba15      2.84004      .   S
    O501   Ba22      2.89358  1_655   S
    O504   Ba20      2.98394      .   S
    O505   Ba21      2.98396      .   S
    O506   Ba12      2.78046      .   S
    O506   Ba20      2.90907      .   S
    O507   Ba13      2.78543      .   S
    O507   Ba21      2.90892      .   S
    O508   Ba0       2.76527      .   S
    O509   Ba1       2.76507      .   S
    O510   Ba14      2.86082      .   S
    O510   Ba22      2.90532      .   S
    O511   Ba15      2.86085      .   S
    O511   Ba23      2.90516      .   S
    O514   Ba16      2.79950      .   S
    O515   Ba17      2.79902      .   S
    O516   Ba2       2.84003      .   S
    O516   Ba27      2.89347      .   S
    O517   Ba3       2.84007      .   S
    O517   Ba26      2.89362  1_655   S
    O520   Ba24      2.98398      .   S
    O521   Ba25      2.98398      .   S
    O522   Ba0       2.78052      .   S
    O522   Ba24      2.90905      .   S
    O523   Ba1       2.78043      .   S
    O523   Ba25      2.90900      .   S
    O524   Ba8       2.76517      .   S
    O525   Ba9       2.76512      .   S
    O526   Ba2       2.86081      .   S
    O526   Ba26      2.90526      .   S
    O527   Ba3       2.86081      .   S
    O527   Ba27      2.90520      .   S
    O530   Ba20      2.79940      .   S
    O531   Ba21      2.79942      .   S
    O532   Ba6       2.84007      .   S
    O532   Ba31      2.89347      .   S
    O533   Ba7       2.84006      .   S
    O533   Ba30      2.89371  1_655   S
    O536   Ba28      2.98396      .   S
    O537   Ba29      2.98399      .   S
    O538   Ba4       2.78042      .   S
    O538   Ba28      2.90907      .   S
    O539   Ba5       2.78039      .   S
    O539   Ba29      2.90904      .   S
    O540   Ba12      2.76512      .   S
    O541   Ba13      2.76578      .   S
    O542   Ba6       2.86080      .   S
    O542   Ba30      2.90523      .   S
    O543   Ba7       2.86080      .   S
    O543   Ba31      2.90521      .   S
