# CIF file generated by openbabel 2.4.90, see http://openbabel.sf.net
data_I
_chemical_name_common 'VESTA_phase_1'
_cell_length_a 13.4
_cell_length_b 13.401
_cell_length_c 13.401
_cell_angle_alpha 59.977
_cell_angle_beta 59.995
_cell_angle_gamma 59.995
_space_group_name_H-M_alt 'P 1'
_space_group_name_Hall 'P 1'
loop_
    _symmetry_equiv_pos_as_xyz
    x,y,z
loop_
    _atom_site_label
    _atom_site_type_symbol
    _atom_site_fract_x
    _atom_site_fract_y
    _atom_site_fract_z
    _atom_site_occupancy
    Cd0     Cd   0.49997   0.50000   0.50000   1.000
    Cd1     Cd   0.99999   0.00002   0.00000   1.000
    Cd2     Cd   0.99998   0.50000   0.60000   1.000
    Cd3     Cd   0.99999   0.50000   0.50000   1.000
    Cd4     Cd   0.12497   0.62493   0.62492   1.000
    Cd5     Cd   0.87498   0.37508   0.37507   1.000
    H6      H    0.50861   0.34660   0.79840   1.000
    H7      H    0.84634   0.00000   0.34666   1.000
    H8      H    0.29820   0.34672   0.00000   1.000
    H9      H    0.84627   0.79869   0.34642   1.000
    H10     H    0.50860   0.79841   0.34659   1.000
    H11     H    0.84627   0.34643   0.79867   1.000
    H12     H    0.29819   0.00000   0.34671   1.000
    H13     H    0.84633   0.34667   0.00000   1.000
    H14     H    0.50872   0.34657   0.34657   1.000
    H15     H    0.84666   0.79818   0.00000   1.000
    H16     H    0.29848   0.34646   0.34647   1.000
    H17     H    0.84667   0.00000   0.79816   1.000
    H18     H    0.15329   0.99142   0.20183   1.000
    H19     H    0.49123   0.65343   0.65342   1.000
    H20     H    0.15329   0.20183   0.99141   1.000
    H21     H    0.70147   0.65354   0.65352   1.000
    H22     H    0.70176   0.99129   0.65328   1.000
    H23     H    0.15368   0.65358   0.20132   1.000
    H24     H    0.49135   0.20159   0.65340   1.000
    H25     H    0.15362   0.65333   0.99115   1.000
    H26     H    0.15360   0.99115   0.65333   1.000
    H27     H    0.70175   0.65328   0.99128   1.000
    H28     H    0.15368   0.20132   0.65350   1.000
    H29     H    0.49134   0.65340   0.20100   1.000
    C30     C    0.41223   0.38948   0.80880   1.000
    C31     C    0.88931   0.91242   0.38949   1.000
    C32     C    0.30876   0.38955   0.91230   1.000
    C33     C    0.88926   0.80905   0.38940   1.000
    C34     C    0.41222   0.80888   0.38948   1.000
    C35     C    0.88927   0.38940   0.80905   1.000
    C36     C    0.30876   0.91231   0.38954   1.000
    C37     C    0.88930   0.38950   0.91240   1.000
    C38     C    0.41231   0.38947   0.38946   1.000
    C39     C    0.88952   0.80873   0.91218   1.000
    C40     C    0.30892   0.38942   0.38942   1.000
    C41     C    0.88952   0.91219   0.80871   1.000
    C42     C    0.11043   0.08781   0.19128   1.000
    C43     C    0.58764   0.61053   0.61053   1.000
    C44     C    0.11043   0.19128   0.08781   1.000
    C45     C    0.69104   0.61058   0.61057   1.000
    C46     C    0.69119   0.08770   0.61045   1.000
    C47     C    0.11068   0.61061   0.19095   1.000
    C48     C    0.58773   0.19112   0.61051   1.000
    C49     C    0.11065   0.61050   0.08758   1.000
    C50     C    0.11064   0.08758   0.61050   1.000
    C51     C    0.69119   0.61045   0.08769   1.000
    C52     C    0.11069   0.19095   0.61059   1.000
    C53     C    0.58772   0.61052   0.19112   1.000
    N54     N    0.37426   0.45765   0.71032   1.000
    N55     N    0.95762   0.87429   0.45774   1.000
    N56     N    0.21027   0.45771   0.87420   1.000
    N57     N    0.95758   0.71043   0.45758   1.000
    N58     N    0.37426   0.71032   0.45763   1.000
    N59     N    0.95758   0.45759   0.71042   1.000
    N60     N    0.21027   0.87425   0.45771   1.000
    N61     N    0.95762   0.45775   0.87429   1.000
    N62     N    0.37424   0.45772   0.45773   1.000
    N63     N    0.95774   0.71022   0.87420   1.000
    N64     N    0.21035   0.45766   0.45766   1.000
    N65     N    0.95774   0.87420   0.71021   1.000
    N66     N    0.04221   0.12580   0.28978   1.000
    N67     N    0.62571   0.54228   0.54226   1.000
    N68     N    0.04221   0.28979   0.12579   1.000
    N69     N    0.78960   0.54235   0.54233   1.000
    N70     N    0.78968   0.12576   0.54228   1.000
    N71     N    0.04237   0.54241   0.28957   1.000
    N72     N    0.62569   0.28968   0.54236   1.000
    N73     N    0.04233   0.54226   0.12570   1.000
    N74     N    0.04233   0.12571   0.54225   1.000
    N75     N    0.78968   0.54229   0.12575   1.000
    N76     N    0.04237   0.28958   0.54241   1.000
    N77     N    0.62569   0.54236   0.28967   1.000
    N78     N    0.25153   0.49835   0.75150   1.000
    N79     N    0.99839   0.75155   0.49837   1.000
    N80     N    0.25153   0.75151   0.49836   1.000
    N81     N    0.99840   0.49837   0.75150   1.000
    N82     N    0.25151   0.49845   0.49842   1.000
    N83     N    0.99841   0.75146   0.75146   1.000
    N84     N    0.00154   0.24854   0.24853   1.000
    N85     N    0.74844   0.50156   0.50157   1.000
    N86     N    0.74843   0.24850   0.50163   1.000
    N87     N    0.00156   0.50164   0.24845   1.000
    N88     N    0.00156   0.24846   0.50162   1.000
    N89     N    0.74843   0.50165   0.24849   1.000
loop_
    _geom_bond_atom_site_label_1
    _geom_bond_atom_site_label_2
    _geom_bond_distance
    _geom_bond_site_symmetry_2
    _ccdc_geom_bond_type
    H15    C39       0.98669  1_554   S
    H13    C37       1.00960  1_554   S
    H8     C32       0.98518  1_554   S
    C49    N73       1.35560      .   S
    C49    C47       1.38616      .   S
    C49    H25       1.08398  1_554   S
    C51    N75       1.35561      .   S
    C51    C53       1.38614      .   S
    C51    H27       1.08398  1_554   S
    C44    N68       1.35555      .   S
    C44    C42       1.38609      .   S
    C44    H20       1.08402  1_554   S
    N73    N87       1.34286      .   S
    N75    N89       1.34275      .   S
    N68    N84       1.34274      .   S
    C47    H23       1.08395      .   S
    C47    N71       1.35562      .   S
    C53    H29       1.08560      .   S
    C53    N77       1.35553      .   S
    C42    H18       1.08397  1_545   S
    C42    N66       1.35551      .   S
    N87    N71       1.34279      .   S
    N87    Cd5       2.39817  1_455   S
    N89    N77       1.34280      .   S
    N89    Cd5       2.39821      .   S
    N84    N66       1.34276      .   S
    N84    Cd5       2.39835  1_455   S
    N77    Cd0       2.38980      .   S
    H9     C33       1.08398      .   S
    H16    C40       1.08397      .   S
    H14    C38       1.08396      .   S
    H10    C34       1.08396      .   S
    H7     C31       1.00943  1_545   S
    H12    C36       0.98507  1_545   S
    Cd5    N85       2.39748      .   S
    Cd5    N88       2.39814  1_655   S
    Cd5    N86       2.39819      .   S
    C33    C31       1.38615      .   S
    C33    N57       1.35564      .   S
    C40    C38       1.38609      .   S
    C40    N64       1.35562      .   S
    C38    N62       1.35564      .   S
    C34    C36       1.38612      .   S
    C34    N58       1.35561      .   S
    C31    N55       1.35551      .   S
    C36    N60       1.35557      .   S
    N57    N79       1.34287      .   S
    N58    N80       1.34280      .   S
    N58    Cd0       2.38973      .   S
    N64    N82       1.34276      .   S
    N64    Cd3       2.39010  1_455   S
    N60    N80       1.34278      .   S
    N62    N82       1.34276      .   S
    N62    Cd0       2.38977      .   S
    N55    N79       1.34276      .   S
    N80    Cd4       2.39819      .   S
    N79    Cd4       2.39813  1_655   S
    N82    Cd4       2.39749      .   S
    Cd3    Cd2       1.34007      .   S
    Cd0    N67       2.38969      .   S
    Cd0    N72       2.38972      .   S
    Cd0    N54       2.38970      .   S
    N85    N67       1.34276      .   S
    N85    N69       1.34276      .   S
    N88    N74       1.34276      .   S
    N88    N76       1.34286      .   S
    N86    N70       1.34278      .   S
    N86    N72       1.34281      .   S
    N74    C50       1.35549      .   S
    N67    C43       1.35565      .   S
    N70    C46       1.35558      .   S
    N69    C45       1.35562      .   S
    N72    C48       1.35560      .   S
    N76    C52       1.35563      .   S
    C46    C48       1.38612      .   S
    C46    H22       1.08396  1_545   S
    C50    C52       1.38615      .   S
    C50    H26       1.08398  1_545   S
    C48    H24       1.08396      .   S
    C43    C45       1.38609      .   S
    C43    H19       1.08396      .   S
    C45    H21       1.08397      .   S
    C52    H28       1.08316      .   S
    Cd4    N83       2.39834  1_455   S
    Cd4    N81       2.39819  1_455   S
    Cd4    N78       2.39819      .   S
    N65    N83       1.34278      .   S
    N65    C41       1.35551      .   S
    N54    N78       1.34281      .   S
    N54    C30       1.35475      .   S
    N59    N81       1.34234      .   S
    N59    C35       1.35567      .   S
    N59    Cd2       1.21490      .   S
    N83    N63       1.34274      .   S
    N81    N61       1.34330      .   S
    N78    N56       1.34231      .   S
    H17    C41       0.98654  1_545   S
    H6     C30       1.08416      .   S
    H11    C35       1.08404      .   S
    C41    C39       1.38609      .   S
    C30    C32       1.38662      .   S
    C35    C37       1.38589      .   S
    N56    C32       1.35589      .   S
    N63    C39       1.35555      .   S
    N61    C37       1.35564      .   S
