# CIF file generated by openbabel 2.4.90, see http://openbabel.sf.net
data_I
_chemical_name_common ''
_cell_length_a 15.254
_cell_length_b 13.761
_cell_length_c 22.276
_cell_angle_alpha 89.97
_cell_angle_beta 90.024
_cell_angle_gamma 90.154
_space_group_name_H-M_alt 'P 1'
_space_group_name_Hall 'P 1'
loop_
    _symmetry_equiv_pos_as_xyz
    x,y,z
loop_
    _atom_site_label
    _atom_site_type_symbol
    _atom_site_fract_x
    _atom_site_fract_y
    _atom_site_fract_z
    _atom_site_occupancy
    C0      C    0.46591   0.83145   0.80083   1.000
    C1      C    0.96592   0.83145   0.80083   1.000
    C2      C    0.03396   0.66917   0.30136   1.000
    C3      C    0.53395   0.66917   0.30136   1.000
    C4      C    0.03409   0.16853   0.19918   1.000
    C5      C    0.53409   0.16852   0.19918   1.000
    C6      C    0.46601   0.33081   0.69864   1.000
    C7      C    0.96604   0.33082   0.69860   1.000
    C8      C    0.21705   0.58110   0.76745   1.000
    C9      C    0.71706   0.58110   0.76740   1.000
    C10     C    0.28309   0.91933   0.26956   1.000
    C11     C    0.78309   0.91933   0.26956   1.000
    C12     C    0.28294   0.41888   0.23255   1.000
    C13     C    0.78294   0.41890   0.23254   1.000
    C14     C    0.21690   0.08065   0.73043   1.000
    C15     C    0.71692   0.08068   0.73047   1.000
    C16     C    0.48684   0.84464   0.67086   1.000
    C17     C    0.98685   0.84464   0.67086   1.000
    C18     C    0.05910   0.77100   0.70190   1.000
    C19     C    0.55911   0.77101   0.70190   1.000
    C20     C    0.37481   0.72464   0.67260   1.000
    C21     C    0.87481   0.72465   0.67260   1.000
    C22     C    0.44198   0.64887   0.71647   1.000
    C23     C    0.94198   0.64887   0.71647   1.000
    C24     C    0.04438   0.62248   0.63352   1.000
    C25     C    0.54439   0.62248   0.63352   1.000
    C26     C    0.43662   0.58435   0.61793   1.000
    C27     C    0.93663   0.58436   0.61793   1.000
    C28     C    0.02257   0.77063   0.56836   1.000
    C29     C    0.52258   0.77063   0.56836   1.000
    C30     C    0.41252   0.73598   0.55554   1.000
    C31     C    0.91253   0.73598   0.55554   1.000
    C32     C    0.46368   0.57867   0.51070   1.000
    C33     C    0.96369   0.57867   0.51071   1.000
    C34     C    0.07366   0.61272   0.52328   1.000
    C35     C    0.57366   0.61272   0.52328   1.000
    C36     C    0.44594   0.71925   0.43875   1.000
    C37     C    0.94595   0.71925   0.43875   1.000
    C38     C    0.05677   0.75098   0.44976   1.000
    C39     C    0.55678   0.75098   0.44976   1.000
    C40     C    0.50495   0.93858   0.90342   1.000
    C41     C    0.00000   0.93858   0.90341   1.000
    C42     C    0.40218   0.90458   0.91052   1.000
    C43     C    0.90217   0.90457   0.91052   1.000
    C44     C    0.01089   0.65660   0.17160   1.000
    C45     C    0.51089   0.65661   0.17160   1.000
    C46     C    0.44078   0.73240   0.20280   1.000
    C47     C    0.94079   0.73240   0.20288   1.000
    C48     C    0.12560   0.77374   0.17236   1.000
    C49     C    0.62561   0.77374   0.17236   1.000
    C50     C    0.06033   0.85169   0.21605   1.000
    C51     C    0.56034   0.85169   0.21605   1.000
    C52     C    0.45745   0.87891   0.13323   1.000
    C53     C    0.95746   0.87891   0.13323   1.000
    C54     C    0.06563   0.91519   0.11733   1.000
    C55     C    0.56564   0.91519   0.11730   1.000
    C56     C    0.47723   0.72983   0.06852   1.000
    C57     C    0.97723   0.72983   0.06852   1.000
    C58     C    0.08754   0.76299   0.05535   1.000
    C59     C    0.58756   0.76299   0.05535   1.000
    C60     C    0.03751   0.92088   0.01027   1.000
    C61     C    0.53753   0.92088   0.01027   1.000
    C62     C    0.42736   0.88776   0.02291   1.000
    C63     C    0.92735   0.88776   0.02291   1.000
    C64     C    0.05425   0.78003   0.93852   1.000
    C65     C    0.55427   0.78003   0.93852   1.000
    C66     C    0.44327   0.74907   0.94965   1.000
    C67     C    0.94327   0.74907   0.94960   1.000
    C68     C    0.99601   0.56098   0.40387   1.000
    C69     C    0.49600   0.56098   0.40387   1.000
    C70     C    0.09865   0.59570   0.41080   1.000
    C71     C    0.59865   0.59569   0.41080   1.000
    C72     C    0.01317   0.15534   0.32915   1.000
    C73     C    0.51317   0.15534   0.32910   1.000
    C74     C    0.44090   0.22898   0.29811   1.000
    C75     C    0.94092   0.22898   0.29811   1.000
    C76     C    0.12520   0.27534   0.32740   1.000
    C77     C    0.62520   0.27535   0.32740   1.000
    C78     C    0.05803   0.35112   0.28353   1.000
    C79     C    0.55803   0.35112   0.28353   1.000
    C80     C    0.45562   0.37752   0.36648   1.000
    C81     C    0.95564   0.37752   0.36648   1.000
    C82     C    0.06339   0.41564   0.38207   1.000
    C83     C    0.56339   0.41564   0.38207   1.000
    C84     C    0.47743   0.22936   0.43164   1.000
    C85     C    0.97745   0.22936   0.43164   1.000
    C86     C    0.08749   0.26401   0.44446   1.000
    C87     C    0.58749   0.26401   0.44446   1.000
    C88     C    0.03633   0.42132   0.48929   1.000
    C89     C    0.53634   0.42132   0.48929   1.000
    C90     C    0.42635   0.38728   0.47672   1.000
    C91     C    0.92636   0.38728   0.47672   1.000
    C92     C    0.05406   0.28074   0.56125   1.000
    C93     C    0.55407   0.28074   0.56125   1.000
    C94     C    0.44323   0.24901   0.55024   1.000
    C95     C    0.94324   0.24901   0.55024   1.000
    C96     C    0.99503   0.06141   0.09659   1.000
    C97     C    0.49504   0.06141   0.09659   1.000
    C98     C    0.09781   0.09540   0.08949   1.000
    C99     C    0.59781   0.09541   0.08949   1.000
    C100    C    0.48909   0.34339   0.82840   1.000
    C101    C    0.98910   0.34339   0.82840   1.000
    C102    C    0.05920   0.26759   0.79713   1.000
    C103    C    0.55921   0.26760   0.79713   1.000
    C104    C    0.37438   0.22624   0.82765   1.000
    C105    C    0.87438   0.22626   0.82765   1.000
    C106    C    0.43966   0.14830   0.78396   1.000
    C107    C    0.93965   0.14830   0.78396   1.000
    C108    C    0.04253   0.12108   0.86670   1.000
    C109    C    0.54256   0.12109   0.86678   1.000
    C110    C    0.43437   0.08480   0.88267   1.000
    C111    C    0.93436   0.08481   0.88268   1.000
    C112    C    0.02276   0.27016   0.93149   1.000
    C113    C    0.52277   0.27017   0.93149   1.000
    C114    C    0.41244   0.23700   0.94460   1.000
    C115    C    0.91245   0.23701   0.94466   1.000
    C116    C    0.46247   0.07911   0.98973   1.000
    C117    C    0.96247   0.07912   0.98974   1.000
    C118    C    0.07263   0.11223   0.97710   1.000
    C119    C    0.57265   0.11224   0.97710   1.000
    C120    C    0.44573   0.21996   0.06149   1.000
    C121    C    0.94575   0.21997   0.06149   1.000
    C122    C    0.05673   0.25091   0.05036   1.000
    C123    C    0.55673   0.25092   0.05037   1.000
    C124    C    0.50400   0.43901   0.59614   1.000
    C125    C    0.00000   0.43901   0.59614   1.000
    C126    C    0.40136   0.40430   0.58917   1.000
    C127    C    0.90136   0.40429   0.58918   1.000
    C128    C    0.30096   0.66300   0.79896   1.000
    C129    C    0.80096   0.66300   0.79890   1.000
    C130    C    0.30332   0.00000   0.76070   1.000
    C131    C    0.80335   0.00000   0.76060   1.000
    C132    C    0.13211   0.00000   0.76428   1.000
    C133    C    0.63208   0.00000   0.76420   1.000
    C134    C    0.13132   0.16043   0.69963   1.000
    C135    C    0.63132   0.16041   0.69962   1.000
    C136    C    0.44299   0.70114   0.67929   1.000
    C137    C    0.94299   0.70114   0.67929   1.000
    C138    C    0.97789   0.64962   0.62369   1.000
    C139    C    0.47790   0.64962   0.62369   1.000
    C140    C    0.47858   0.70713   0.56480   1.000
    C141    C    0.97859   0.70713   0.56487   1.000
    C142    C    0.00801   0.64214   0.51290   1.000
    C143    C    0.50801   0.64214   0.51294   1.000
    C144    C    0.01040   0.68968   0.45102   1.000
    C145    C    0.51041   0.68967   0.45102   1.000
    C146    C    0.19895   0.83755   0.30077   1.000
    C147    C    0.69896   0.83755   0.30078   1.000
    C148    C    0.19637   0.49912   0.26199   1.000
    C149    C    0.69637   0.49911   0.26200   1.000
    C150    C    0.36763   0.49823   0.26568   1.000
    C151    C    0.86765   0.49820   0.26560   1.000
    C152    C    0.36858   0.33915   0.20170   1.000
    C153    C    0.86859   0.33914   0.20178   1.000
    C154    C    0.05796   0.79897   0.17917   1.000
    C155    C    0.55797   0.79897   0.17917   1.000
    C156    C    0.52353   0.85063   0.12339   1.000
    C157    C    0.00000   0.85062   0.12339   1.000
    C158    C    0.02184   0.79275   0.06473   1.000
    C159    C    0.52186   0.79275   0.06474   1.000
    C160    C    0.49279   0.85777   0.01263   1.000
    C161    C    0.99279   0.85777   0.01262   1.000
    C162    C    0.48998   0.81006   0.95070   1.000
    C163    C    0.98998   0.81006   0.95077   1.000
    C164    C    0.19904   0.33699   0.20104   1.000
    C165    C    0.69904   0.33698   0.20105   1.000
    C166    C    0.19666   0.99912   0.23930   1.000
    C167    C    0.69667   0.99912   0.23929   1.000
    C168    C    0.36790   0.99786   0.23576   1.000
    C169    C    0.86791   0.99788   0.23578   1.000
    C170    C    0.36866   0.83958   0.30040   1.000
    C171    C    0.86869   0.83957   0.30036   1.000
    C172    C    0.05702   0.29885   0.32071   1.000
    C173    C    0.55702   0.29885   0.32071   1.000
    C174    C    0.52211   0.35037   0.37631   1.000
    C175    C    0.00000   0.35037   0.37630   1.000
    C176    C    0.02143   0.29287   0.43513   1.000
    C177    C    0.52143   0.29286   0.43513   1.000
    C178    C    0.49200   0.35786   0.48707   1.000
    C179    C    0.99201   0.35786   0.48707   1.000
    C180    C    0.48960   0.31031   0.54898   1.000
    C181    C    0.98961   0.31031   0.54898   1.000
    C182    C    0.30103   0.16242   0.69920   1.000
    C183    C    0.80102   0.16244   0.69923   1.000
    C184    C    0.30361   0.50089   0.73797   1.000
    C185    C    0.80363   0.50087   0.73800   1.000
    C186    C    0.13236   0.50178   0.73432   1.000
    C187    C    0.63238   0.50176   0.73431   1.000
    C188    C    0.13138   0.66083   0.79823   1.000
    C189    C    0.63141   0.66082   0.79824   1.000
    C190    C    0.44203   0.20102   0.82080   1.000
    C191    C    0.94202   0.20102   0.82084   1.000
    C192    C    0.97645   0.14937   0.87662   1.000
    C193    C    0.47647   0.14937   0.87662   1.000
    C194    C    0.47814   0.20725   0.93527   1.000
    C195    C    0.97815   0.20725   0.93527   1.000
    C196    C    0.00719   0.14223   0.98738   1.000
    C197    C    0.50721   0.14223   0.98738   1.000
    C198    C    0.01001   0.18993   0.04920   1.000
    C199    C    0.51001   0.18993   0.04924   1.000
    C200    C    0.35445   0.71674   0.81751   1.000
    C201    C    0.85444   0.71674   0.81751   1.000
    C202    C    0.35874   0.95034   0.77960   1.000
    C203    C    0.85878   0.95029   0.77950   1.000
    C204    C    0.07784   0.95326   0.78654   1.000
    C205    C    0.57789   0.95311   0.78640   1.000
    C206    C    0.07724   0.71250   0.81779   1.000
    C207    C    0.57727   0.71255   0.81774   1.000
    C208    C    0.49347   0.78705   0.69969   1.000
    C209    C    0.99348   0.78704   0.69969   1.000
    C210    C    0.46432   0.87899   0.90289   1.000
    C211    C    0.96432   0.87899   0.90289   1.000
    C212    C    0.14525   0.78365   0.31884   1.000
    C213    C    0.64526   0.78362   0.31880   1.000
    C214    C    0.14086   0.55021   0.28010   1.000
    C215    C    0.64087   0.55022   0.28017   1.000
    C216    C    0.42186   0.54798   0.28722   1.000
    C217    C    0.92187   0.54798   0.28721   1.000
    C218    C    0.42297   0.78768   0.31950   1.000
    C219    C    0.92299   0.78767   0.31954   1.000
    C220    C    0.00600   0.71458   0.20027   1.000
    C221    C    0.50600   0.71458   0.20028   1.000
    C222    C    0.03632   0.62081   0.40325   1.000
    C223    C    0.53632   0.62081   0.40325   1.000
    C224    C    0.14557   0.28322   0.18250   1.000
    C225    C    0.64556   0.28324   0.18250   1.000
    C226    C    0.14127   0.04963   0.22028   1.000
    C227    C    0.64124   0.04963   0.22033   1.000
    C228    C    0.42218   0.04675   0.21352   1.000
    C229    C    0.92214   0.04680   0.21353   1.000
    C230    C    0.42274   0.28742   0.18229   1.000
    C231    C    0.92273   0.28742   0.18228   1.000
    C232    C    0.00653   0.21294   0.30032   1.000
    C233    C    0.50653   0.21294   0.30032   1.000
    C234    C    0.03566   0.12099   0.09712   1.000
    C235    C    0.53567   0.12099   0.09712   1.000
    C236    C    0.35477   0.21626   0.68112   1.000
    C237    C    0.85476   0.21634   0.68122   1.000
    C238    C    0.35910   0.44978   0.71979   1.000
    C239    C    0.85912   0.44977   0.71981   1.000
    C240    C    0.07812   0.45203   0.71279   1.000
    C241    C    0.57812   0.45201   0.71280   1.000
    C242    C    0.07702   0.21233   0.68046   1.000
    C243    C    0.57703   0.21239   0.68052   1.000
    C244    C    0.49398   0.28542   0.79973   1.000
    C245    C    0.99399   0.28541   0.79973   1.000
    C246    C    0.46368   0.37917   0.59675   1.000
    C247    C    0.96369   0.37917   0.59675   1.000
    O248    O    0.51516   0.88932   0.01145   1.000
    O249    O    0.01515   0.88933   0.01145   1.000
    O250    O    0.96007   0.87277   0.01776   1.000
    O251    O    0.00732   0.82526   0.03868   1.000
    O252    O    0.99139   0.83391   0.98169   1.000
    O253    O    0.46007   0.87277   0.01777   1.000
    O254    O    0.50733   0.82526   0.03869   1.000
    O255    O    0.49139   0.83391   0.98167   1.000
    O256    O    0.03337   0.22042   0.04978   1.000
    O257    O    0.97788   0.20495   0.05534   1.000
    O258    O    0.02283   0.15546   0.07316   1.000
    O259    O    0.00860   0.16608   0.01829   1.000
    O260    O    0.53337   0.22043   0.04981   1.000
    O261    O    0.47787   0.20495   0.05537   1.000
    O262    O    0.52284   0.15546   0.07318   1.000
    O263    O    0.50861   0.16608   0.01831   1.000
    O264    O    0.55471   0.77787   0.06005   1.000
    O265    O    0.05469   0.77787   0.06004   1.000
    O266    O    0.99954   0.76129   0.06663   1.000
    O267    O    0.01092   0.82169   0.09406   1.000
    O268    O    0.49954   0.76129   0.06663   1.000
    O269    O    0.52270   0.82169   0.09406   1.000
    O270    O    0.56674   0.10820   0.09330   1.000
    O271    O    0.06673   0.10820   0.09330   1.000
    O272    O    0.01535   0.09120   0.09686   1.000
    O273    O    0.51536   0.09120   0.09686   1.000
    O274    O    0.03488   0.14476   0.14815   1.000
    O275    O    0.53488   0.14476   0.14815   1.000
    O276    O    0.54459   0.88291   0.12035   1.000
    O277    O    0.03281   0.88290   0.12036   1.000
    O278    O    0.49049   0.86477   0.12831   1.000
    O279    O    0.54075   0.82480   0.15128   1.000
    O280    O    0.97873   0.86477   0.12831   1.000
    O281    O    0.02898   0.82480   0.15128   1.000
    O282    O    0.50845   0.68559   0.18594   1.000
    O283    O    0.00844   0.68559   0.18594   1.000
    O284    O    0.59179   0.78635   0.17577   1.000
    O285    O    0.09178   0.78635   0.17577   1.000
    O286    O    0.53199   0.75677   0.18973   1.000
    O287    O    0.55916   0.82533   0.19761   1.000
    O288    O    0.03198   0.75677   0.18972   1.000
    O289    O    0.05915   0.82533   0.19761   1.000
    O290    O    0.97841   0.22797   0.19073   1.000
    O291    O    0.89566   0.31328   0.19203   1.000
    O292    O    0.47842   0.22797   0.19074   1.000
    O293    O    0.39566   0.31329   0.19199   1.000
    O294    O    0.58983   0.22588   0.19084   1.000
    O295    O    0.67230   0.31011   0.19178   1.000
    O296    O    0.08983   0.22587   0.19084   1.000
    O297    O    0.17230   0.31011   0.19177   1.000
    O298    O    0.47814   0.10763   0.20635   1.000
    O299    O    0.58767   0.10908   0.20976   1.000
    O300    O    0.52031   0.19073   0.24975   1.000
    O301    O    0.97812   0.10766   0.20636   1.000
    O302    O    0.08768   0.10908   0.20973   1.000
    O303    O    0.02031   0.19073   0.24975   1.000
    O304    O    0.97340   0.72349   0.20157   1.000
    O305    O    0.01998   0.69187   0.25082   1.000
    O306    O    0.47339   0.72349   0.20154   1.000
    O307    O    0.51998   0.69188   0.25082   1.000
    O308    O    0.24099   0.37794   0.21680   1.000
    O309    O    0.74099   0.37794   0.21680   1.000
    O310    O    0.32576   0.37902   0.21713   1.000
    O311    O    0.82576   0.37902   0.21716   1.000
    O312    O    0.39504   0.02230   0.22464   1.000
    O313    O    0.89502   0.02234   0.22465   1.000
    O314    O    0.16896   0.02438   0.22979   1.000
    O315    O    0.66896   0.02437   0.22981   1.000
    O316    O    0.73965   0.45900   0.24727   1.000
    O317    O    0.82529   0.45855   0.24907   1.000
    O318    O    0.23965   0.45900   0.24727   1.000
    O319    O    0.32529   0.45856   0.24912   1.000
    O320    O    0.32549   0.95859   0.25266   1.000
    O321    O    0.82550   0.95860   0.25267   1.000
    O322    O    0.73988   0.95922   0.25443   1.000
    O323    O    0.23987   0.95923   0.25443   1.000
    O324    O    0.16862   0.52466   0.27105   1.000
    O325    O    0.66862   0.52467   0.27109   1.000
    O326    O    0.89476   0.52309   0.27641   1.000
    O327    O    0.39475   0.52310   0.27645   1.000
    O328    O    0.32587   0.87945   0.28498   1.000
    O329    O    0.24102   0.87844   0.28517   1.000
    O330    O    0.82589   0.87945   0.28496   1.000
    O331    O    0.74103   0.87844   0.28517   1.000
    O332    O    0.08741   0.60969   0.29073   1.000
    O333    O    0.58741   0.60970   0.29076   1.000
    O334    O    0.05752   0.32498   0.30212   1.000
    O335    O    0.55753   0.32498   0.30212   1.000
    O336    O    0.97792   0.60857   0.29429   1.000
    O337    O    0.47791   0.60857   0.29429   1.000
    O338    O    0.47372   0.22096   0.29922   1.000
    O339    O    0.97373   0.22096   0.29922   1.000
    O340    O    0.03178   0.25590   0.31051   1.000
    O341    O    0.00985   0.18414   0.31473   1.000
    O342    O    0.53178   0.25589   0.31051   1.000
    O343    O    0.50985   0.18414   0.31471   1.000
    O344    O    0.89584   0.81362   0.30995   1.000
    O345    O    0.39581   0.81363   0.30995   1.000
    O346    O    0.17210   0.81060   0.30980   1.000
    O347    O    0.67211   0.81058   0.30979   1.000
    O348    O    0.08960   0.72641   0.31010   1.000
    O349    O    0.97847   0.72842   0.31045   1.000
    O350    O    0.03514   0.64499   0.35230   1.000
    O351    O    0.58961   0.72640   0.31008   1.000
    O352    O    0.47846   0.72843   0.31043   1.000
    O353    O    0.53514   0.64499   0.35230   1.000
    O354    O    0.09111   0.28710   0.32406   1.000
    O355    O    0.02851   0.32461   0.34851   1.000
    O356    O    0.59111   0.28710   0.32406   1.000
    O357    O    0.53957   0.32461   0.34851   1.000
    O358    O    0.97782   0.36394   0.37139   1.000
    O359    O    0.48887   0.36394   0.37139   1.000
    O360    O    0.03169   0.38300   0.37919   1.000
    O361    O    0.01071   0.32162   0.40572   1.000
    O362    O    0.54275   0.38300   0.37919   1.000
    O363    O    0.52177   0.32162   0.40572   1.000
    O364    O    0.01616   0.59089   0.40356   1.000
    O365    O    0.06749   0.60825   0.40702   1.000
    O366    O    0.02336   0.65524   0.42713   1.000
    O367    O    0.51616   0.59089   0.40356   1.000
    O368    O    0.56748   0.60825   0.40702   1.000
    O369    O    0.52337   0.65524   0.42713   1.000
    O370    O    0.49943   0.26111   0.43339   1.000
    O371    O    0.99944   0.26111   0.43339   1.000
    O372    O    0.05446   0.27844   0.43980   1.000
    O373    O    0.00672   0.32536   0.46110   1.000
    O374    O    0.55446   0.27844   0.43980   1.000
    O375    O    0.50671   0.32536   0.46110   1.000
    O376    O    0.47817   0.70446   0.44488   1.000
    O377    O    0.97818   0.70446   0.44488   1.000
    O378    O    0.53360   0.72033   0.45039   1.000
    O379    O    0.03359   0.72033   0.45039   1.000
    O380    O    0.50921   0.66591   0.48198   1.000
    O381    O    0.00921   0.66591   0.48196   1.000
    O382    O    0.95919   0.37257   0.48189   1.000
    O383    O    0.45917   0.37257   0.48189   1.000
    O384    O    0.51417   0.38959   0.48818   1.000
    O385    O    0.49080   0.33409   0.51802   1.000
    O386    O    0.01417   0.38959   0.48818   1.000
    O387    O    0.99081   0.33408   0.51802   1.000
    O388    O    0.48585   0.61041   0.51182   1.000
    O389    O    0.98585   0.61041   0.51181   1.000
    O390    O    0.04083   0.62743   0.51809   1.000
    O391    O    0.99330   0.67463   0.53889   1.000
    O392    O    0.54084   0.62743   0.51811   1.000
    O393    O    0.49330   0.67463   0.53887   1.000
    O394    O    0.96642   0.27966   0.54961   1.000
    O395    O    0.02183   0.29552   0.55512   1.000
    O396    O    0.97665   0.34474   0.57286   1.000
    O397    O    0.46641   0.27966   0.54961   1.000
    O398    O    0.52183   0.29553   0.55512   1.000
    O399    O    0.47664   0.34474   0.57286   1.000
    O400    O    0.94556   0.72155   0.56021   1.000
    O401    O    0.44555   0.72155   0.56017   1.000
    O402    O    0.50058   0.73888   0.56658   1.000
    O403    O    0.47824   0.67838   0.59425   1.000
    O404    O    0.00058   0.73888   0.56661   1.000
    O405    O    0.97824   0.67838   0.59428   1.000
    O406    O    0.43252   0.39174   0.59296   1.000
    O407    O    0.93252   0.39173   0.59297   1.000
    O408    O    0.98184   0.40909   0.59645   1.000
    O409    O    0.48384   0.40909   0.59645   1.000
    O410    O    0.46484   0.35500   0.64770   1.000
    O411    O    0.96486   0.35500   0.64768   1.000
    O412    O    0.45726   0.61699   0.62081   1.000
    O413    O    0.95726   0.61699   0.62081   1.000
    O414    O    0.01114   0.63605   0.62860   1.000
    O415    O    0.96044   0.67538   0.65149   1.000
    O416    O    0.51114   0.63605   0.62860   1.000
    O417    O    0.46044   0.67538   0.65149   1.000
    O418    O    0.49016   0.81585   0.68528   1.000
    O419    O    0.99017   0.81584   0.68528   1.000
    O420    O    0.90890   0.71290   0.67594   1.000
    O421    O    0.40890   0.71289   0.67594   1.000
    O422    O    0.46823   0.74409   0.68949   1.000
    O423    O    0.44248   0.67500   0.69788   1.000
    O424    O    0.96824   0.74409   0.68949   1.000
    O425    O    0.94249   0.67500   0.69788   1.000
    O426    O    0.02153   0.27158   0.68953   1.000
    O427    O    0.10417   0.18638   0.69005   1.000
    O428    O    0.52152   0.27160   0.68958   1.000
    O429    O    0.60418   0.18640   0.69007   1.000
    O430    O    0.41039   0.27354   0.68988   1.000
    O431    O    0.32790   0.18934   0.69016   1.000
    O432    O    0.91040   0.27358   0.68991   1.000
    O433    O    0.82789   0.18939   0.69022   1.000
    O434    O    0.02208   0.39142   0.70570   1.000
    O435    O    0.91258   0.39030   0.70920   1.000
    O436    O    0.98002   0.30811   0.74917   1.000
    O437    O    0.52206   0.39141   0.70572   1.000
    O438    O    0.41255   0.39030   0.70922   1.000
    O439    O    0.48000   0.30812   0.74919   1.000
    O440    O    0.25897   0.12154   0.71481   1.000
    O441    O    0.75897   0.12156   0.71485   1.000
    O442    O    0.67412   0.12055   0.71505   1.000
    O443    O    0.17411   0.12054   0.71503   1.000
    O444    O    0.52629   0.77903   0.70079   1.000
    O445    O    0.47969   0.80925   0.75026   1.000
    O446    O    0.02629   0.77902   0.70079   1.000
    O447    O    0.97970   0.80925   0.75026   1.000
    O448    O    0.10524   0.47690   0.72356   1.000
    O449    O    0.60525   0.47688   0.72356   1.000
    O450    O    0.33135   0.47534   0.72888   1.000
    O451    O    0.83137   0.47532   0.72890   1.000
    O452    O    0.26011   0.04032   0.74557   1.000
    O453    O    0.17451   0.04032   0.74735   1.000
    O454    O    0.76013   0.04034   0.74554   1.000
    O455    O    0.67450   0.04034   0.74734   1.000
    O456    O    0.67472   0.54143   0.75085   1.000
    O457    O    0.17470   0.54144   0.75089   1.000
    O458    O    0.26033   0.54099   0.75271   1.000
    O459    O    0.76035   0.54098   0.75270   1.000
    O460    O    0.83106   0.97515   0.77005   1.000
    O461    O    0.33103   0.97517   0.77015   1.000
    O462    O    0.60498   0.97656   0.77530   1.000
    O463    O    0.10497   0.97663   0.77541   1.000
    O464    O    0.67424   0.62096   0.78282   1.000
    O465    O    0.75901   0.62205   0.78315   1.000
    O466    O    0.17422   0.62096   0.78284   1.000
    O467    O    0.25901   0.62205   0.78320   1.000
    O468    O    0.91235   0.89087   0.79017   1.000
    O469    O    0.41232   0.89090   0.79022   1.000
    O470    O    0.44084   0.17466   0.80238   1.000
    O471    O    0.94083   0.17466   0.80240   1.000
    O472    O    0.52190   0.89228   0.79362   1.000
    O473    O    0.02188   0.89236   0.79369   1.000
    O474    O    0.02659   0.27650   0.79843   1.000
    O475    O    0.52660   0.27651   0.79843   1.000
    O476    O    0.10431   0.68666   0.80801   1.000
    O477    O    0.60434   0.68668   0.80799   1.000
    O478    O    0.82770   0.68987   0.80820   1.000
    O479    O    0.32770   0.68987   0.80823   1.000
    O480    O    0.46800   0.24322   0.81027   1.000
    O481    O    0.49154   0.31440   0.81407   1.000
    O482    O    0.96801   0.24322   0.81028   1.000
    O483    O    0.99155   0.31440   0.81407   1.000
    O484    O    0.91018   0.77410   0.80917   1.000
    O485    O    0.02158   0.77198   0.80931   1.000
    O486    O    0.96512   0.85522   0.85186   1.000
    O487    O    0.41018   0.77409   0.80917   1.000
    O488    O    0.52159   0.77200   0.80929   1.000
    O489    O    0.46511   0.85522   0.85186   1.000
    O490    O    0.40821   0.21363   0.82422   1.000
    O491    O    0.45925   0.17520   0.84871   1.000
    O492    O    0.90820   0.21364   0.82424   1.000
    O493    O    0.95923   0.17520   0.84873   1.000
    O494    O    0.00949   0.13523   0.87166   1.000
    O495    O    0.50952   0.13523   0.87170   1.000
    O496    O    0.45542   0.11709   0.87965   1.000
    O497    O    0.47731   0.17831   0.90595   1.000
    O498    O    0.95541   0.11709   0.87965   1.000
    O499    O    0.97730   0.17831   0.90595   1.000
    O500    O    0.48464   0.90878   0.90316   1.000
    O501    O    0.43325   0.89178   0.90670   1.000
    O502    O    0.47715   0.84453   0.92680   1.000
    O503    O    0.98216   0.90879   0.90315   1.000
    O504    O    0.93324   0.89178   0.90670   1.000
    O505    O    0.97715   0.84452   0.92683   1.000
    O506    O    0.50046   0.23871   0.93338   1.000
    O507    O    0.00045   0.23871   0.93338   1.000
    O508    O    0.94530   0.22213   0.93997   1.000
    O509    O    0.99267   0.17474   0.96133   1.000
    O510    O    0.44529   0.22212   0.93993   1.000
    O511    O    0.49268   0.17474   0.96133   1.000
    O512    O    0.52212   0.79504   0.94461   1.000
    O513    O    0.02212   0.79504   0.94465   1.000
    O514    O    0.96663   0.77956   0.95019   1.000
    O515    O    0.46662   0.77957   0.95017   1.000
    O516    O    0.03991   0.12723   0.98224   1.000
    O517    O    0.53993   0.12723   0.98224   1.000
    O518    O    0.48484   0.11067   0.98856   1.000
    O519    O    0.98483   0.11067   0.98856   1.000
loop_
    _geom_bond_atom_site_label_1
    _geom_bond_atom_site_label_2
    _geom_bond_distance
    _geom_bond_site_symmetry_2
    _ccdc_geom_bond_type
    C61    O248      0.55216      .   S
    C160   O248      0.55216      .   S
    C60    O249      0.55205      .   S
    C161   O249      0.55205  1_655   S
    C161   O250      0.55267      .   S
    C63    O250      0.55267      .   S
    C161   O251      0.76569  1_655   S
    C158   O251      0.76569      .   S
    C161   O252      0.76354  1_554   S
    C163   O252      0.76354      .   S
    C160   O253      0.55265      .   S
    C62    O253      0.55265      .   S
    C160   O254      0.76571      .   S
    C159   O254      0.76571      .   S
    C160   O255      0.76432  1_554   S
    C162   O255      0.76432      .   S
    C198   O256      0.54991      .   S
    C122   O256      0.54991      .   S
    C198   O257      0.54980  1_455   S
    C121   O257      0.54980      .   S
    C198   O258      0.74047      .   S
    C234   O258      0.74047      .   S
    C198   O259      0.76320      .   S
    C196   O259      0.76320  1_556   S
    C199   O260      0.54990      .   S
    C123   O260      0.54990      .   S
    C199   O261      0.54985      .   S
    C120   O261      0.54985      .   S
    C199   O262      0.74015      .   S
    C235   O262      0.74015      .   S
    C199   O263      0.76361      .   S
    C197   O263      0.76361  1_556   S
    C59    O264      0.55188      .   S
    C159   O264      0.55188      .   S
    C58    O265      0.55186      .   S
    C158   O265      0.55186      .   S
    C158   O266      0.55151  1_455   S
    C57    O266      0.55151      .   S
    C158   O267      0.78354      .   S
    C157   O267      0.78354      .   S
    C159   O268      0.55161      .   S
    C56    O268      0.55161      .   S
    C159   O269      0.76533      .   S
    C156   O269      0.76533      .   S
    C99    O270      0.51319      .   S
    C235   O270      0.51319      .   S
    C98    O271      0.51318      .   S
    C234   O271      0.51318      .   S
    C96    O272      0.51328  1_655   S
    C234   O272      0.51328      .   S
    C97    O273      0.51329      .   S
    C235   O273      0.51329      .   S
    C234   O274      1.18310      .   S
    C4     O274      1.18310      .   S
    C235   O275      1.18308      .   S
    C5     O275      1.18308      .   S
    C55    O276      0.55162      .   S
    C156   O276      0.55162      .   S
    C54    O277      0.67172      .   S
    C157   O277      0.67172      .   S
    C156   O278      0.55184      .   S
    C52    O278      0.55184      .   S
    C156   O279      0.76252      .   S
    C155   O279      0.76252      .   S
    C157   O280      0.39443  1_455   S
    C53    O280      0.39443      .   S
    C157   O281      0.84150      .   S
    C154   O281      0.84150      .   S
    C45    O282      0.51260      .   S
    C221   O282      0.51260      .   S
    C44    O283      0.51254      .   S
    C220   O283      0.51254      .   S
    C49    O284      0.55005      .   S
    C155   O284      0.55005      .   S
    C48    O285      0.55005      .   S
    C154   O285      0.55005      .   S
    C155   O286      0.74042      .   S
    C221   O286      0.74042      .   S
    C155   O287      0.54843      .   S
    C51    O287      0.54843      .   S
    C154   O288      0.74039      .   S
    C220   O288      0.74039      .   S
    C154   O289      0.54841      .   S
    C50    O289      0.54841      .   S
    C231   O290      1.19558      .   S
    C4     O290      1.19558  1_455   S
    C231   O291      0.58763      .   S
    C153   O291      0.58763      .   S
    C230   O292      1.19558      .   S
    C5     O292      1.19558      .   S
    C230   O293      0.58736      .   S
    C152   O293      0.58736      .   S
    C225   O294      1.17332      .   S
    C5     O294      1.17332      .   S
    C225   O295      0.58735      .   S
    C165   O295      0.58735      .   S
    C224   O296      1.17331      .   S
    C4     O296      1.17331      .   S
    C224   O297      0.58737      .   S
    C164   O297      0.58737      .   S
    C5     O298      1.20508      .   S
    C228   O298      1.20508      .   S
    C5     O299      1.18143      .   S
    C227   O299      1.18143      .   S
    C5     O300      1.18637      .   S
    C233   O300      1.18637      .   S
    C4     O301      1.20502  1_455   S
    C229   O301      1.20502      .   S
    C4     O302      1.18150      .   S
    C226   O302      1.18150      .   S
    C4     O303      1.18636      .   S
    C232   O303      1.18636      .   S
    C220   O304      0.51336  1_455   S
    C47    O304      0.51336      .   S
    C220   O305      1.18770      .   S
    C2     O305      1.18770      .   S
    C221   O306      0.51347      .   S
    C46    O306      0.51347      .   S
    C221   O307      1.18758      .   S
    C3     O307      1.18758      .   S
    C164   O308      0.92099      .   S
    C12    O308      0.92099      .   S
    C165   O309      0.92100      .   S
    C13    O309      0.92100      .   S
    C152   O310      0.92087      .   S
    C12    O310      0.92087      .   S
    C153   O311      0.92059      .   S
    C13    O311      0.92059      .   S
    C228   O312      0.58752      .   S
    C168   O312      0.58752  1_565   S
    C229   O313      0.58747      .   S
    C169   O313      0.58747  1_565   S
    C226   O314      0.58715      .   S
    C166   O314      0.58715  1_565   S
    C227   O315      0.58716      .   S
    C167   O315      0.58716  1_565   S
    C13    O316      0.92231      .   S
    C149   O316      0.92231      .   S
    C13    O317      0.92133      .   S
    C151   O317      0.92133      .   S
    C12    O318      0.92228      .   S
    C148   O318      0.92228      .   S
    C12    O319      0.92173      .   S
    C150   O319      0.92173      .   S
    C168   O320      0.92205      .   S
    C10    O320      0.92205      .   S
    C169   O321      0.92206      .   S
    C11    O321      0.92206      .   S
    C167   O322      0.92254      .   S
    C11    O322      0.92254      .   S
    C166   O323      0.92259      .   S
    C10    O323      0.92259      .   S
    C148   O324      0.58684      .   S
    C214   O324      0.58684      .   S
    C149   O325      0.58713      .   S
    C215   O325      0.58713      .   S
    C151   O326      0.58780      .   S
    C217   O326      0.58780      .   S
    C150   O327      0.58740      .   S
    C216   O327      0.58740      .   S
    C10    O328      0.92007      .   S
    C170   O328      0.92007      .   S
    C10    O329      0.92049      .   S
    C146   O329      0.92049      .   S
    C11    O330      0.92010      .   S
    C171   O330      0.92010      .   S
    C11    O331      0.92050      .   S
    C147   O331      0.92050      .   S
    C214   O332      1.18102      .   S
    C2     O332      1.18102      .   S
    C215   O333      1.18085      .   S
    C3     O333      1.18085      .   S
    C78    O334      0.54835      .   S
    C172   O334      0.54835      .   S
    C79    O335      0.54837      .   S
    C173   O335      0.54837      .   S
    C217   O336      1.20298      .   S
    C2     O336      1.20298  1_455   S
    C216   O337      1.20301      .   S
    C3     O337      1.20301      .   S
    C74    O338      0.51349      .   S
    C233   O338      0.51349      .   S
    C75    O339      0.51332      .   S
    C232   O339      0.51332  1_455   S
    C232   O340      0.74036      .   S
    C172   O340      0.74036      .   S
    C232   O341      0.51252      .   S
    C72    O341      0.51252      .   S
    C233   O342      0.74036      .   S
    C173   O342      0.74036      .   S
    C233   O343      0.51215      .   S
    C73    O343      0.51215      .   S
    C171   O344      0.58758      .   S
    C219   O344      0.58758      .   S
    C170   O345      0.58737      .   S
    C218   O345      0.58737      .   S
    C146   O346      0.58731      .   S
    C212   O346      0.58731      .   S
    C147   O347      0.58725      .   S
    C213   O347      0.58725      .   S
    C2     O348      1.17275      .   S
    C212   O348      1.17275      .   S
    C2     O349      1.19426  1_455   S
    C219   O349      1.19426      .   S
    C2     O350      1.18259      .   S
    C222   O350      1.18259      .   S
    C3     O351      1.17260      .   S
    C213   O351      1.17260      .   S
    C3     O352      1.19426      .   S
    C218   O352      1.19426      .   S
    C3     O353      1.18260      .   S
    C223   O353      1.18260      .   S
    C172   O354      0.55002      .   S
    C76    O354      0.55002      .   S
    C172   O355      0.83632      .   S
    C175   O355      0.83632      .   S
    C173   O356      0.55002      .   S
    C77    O356      0.55002      .   S
    C173   O357      0.76219      .   S
    C174   O357      0.76219      .   S
    C81    O358      0.40201      .   S
    C175   O358      0.40201  1_455   S
    C80    O359      0.55179      .   S
    C174   O359      0.55179      .   S
    C175   O360      0.66211      .   S
    C82    O360      0.66211      .   S
    C175   O361      0.78267      .   S
    C176   O361      0.78267      .   S
    C174   O362      0.55154      .   S
    C83    O362      0.55154      .   S
    C174   O363      0.76518      .   S
    C177   O363      0.76518      .   S
    C222   O364      0.51324      .   S
    C68    O364      0.51324  1_655   S
    C222   O365      0.51312      .   S
    C70    O365      0.51312      .   S
    C222   O366      0.73995      .   S
    C144   O366      0.73995      .   S
    C223   O367      0.51325      .   S
    C69    O367      0.51325      .   S
    C223   O368      0.51313      .   S
    C71    O368      0.51313      .   S
    C223   O369      0.73994      .   S
    C145   O369      0.73994      .   S
    C84    O370      0.55161      .   S
    C177   O370      0.55161      .   S
    C85    O371      0.55151      .   S
    C176   O371      0.55151  1_455   S
    C176   O372      0.55186      .   S
    C86    O372      0.55186      .   S
    C176   O373      0.76545      .   S
    C179   O373      0.76545  1_655   S
    C177   O374      0.55186      .   S
    C87    O374      0.55186      .   S
    C177   O375      0.76548      .   S
    C178   O375      0.76548      .   S
    C36    O376      0.54985      .   S
    C145   O376      0.54985      .   S
    C37    O377      0.54970      .   S
    C144   O377      0.54970  1_455   S
    C39    O378      0.54991      .   S
    C145   O378      0.54991      .   S
    C38    O379      0.54991      .   S
    C144   O379      0.54991      .   S
    C145   O380      0.76334      .   S
    C143   O380      0.76334      .   S
    C144   O381      0.76294      .   S
    C142   O381      0.76294      .   S
    C91    O382      0.55266      .   S
    C179   O382      0.55266      .   S
    C90    O383      0.55267      .   S
    C178   O383      0.55267      .   S
    C178   O384      0.55214      .   S
    C89    O384      0.55214      .   S
    C178   O385      0.76326      .   S
    C180   O385      0.76326      .   S
    C179   O386      0.55203  1_655   S
    C88    O386      0.55203      .   S
    C179   O387      0.76329      .   S
    C181   O387      0.76329      .   S
    C32    O388      0.55214      .   S
    C143   O388      0.55214      .   S
    C33    O389      0.55202      .   S
    C142   O389      0.55202  1_455   S
    C142   O390      0.55274      .   S
    C34    O390      0.55274      .   S
    C142   O391      0.76569  1_455   S
    C141   O391      0.76569      .   S
    C143   O392      0.55265      .   S
    C35    O392      0.55265      .   S
    C143   O393      0.76480      .   S
    C140   O393      0.76480      .   S
    C181   O394      0.54991      .   S
    C95    O394      0.54991      .   S
    C181   O395      0.54969  1_655   S
    C92    O395      0.54969      .   S
    C181   O396      0.73996      .   S
    C247   O396      0.73996      .   S
    C180   O397      0.54991      .   S
    C94    O397      0.54991      .   S
    C180   O398      0.54985      .   S
    C93    O398      0.54985      .   S
    C180   O399      0.73994      .   S
    C246   O399      0.73994      .   S
    C31    O400      0.55185      .   S
    C141   O400      0.55185      .   S
    C30    O401      0.55171      .   S
    C140   O401      0.55171      .   S
    C140   O402      0.55166      .   S
    C29    O402      0.55166      .   S
    C140   O403      0.76586      .   S
    C139   O403      0.76586      .   S
    C141   O404      0.55151  1_655   S
    C28    O404      0.55151      .   S
    C141   O405      0.76518      .   S
    C138   O405      0.76518      .   S
    C126   O406      0.51317      .   S
    C246   O406      0.51317      .   S
    C127   O407      0.51316      .   S
    C247   O407      0.51316      .   S
    C125   O408      0.49562  1_455   S
    C247   O408      0.49562      .   S
    C124   O409      0.51325      .   S
    C246   O409      0.51325      .   S
    C246   O410      1.18260      .   S
    C6     O410      1.18260      .   S
    C247   O411      1.18216      .   S
    C7     O411      1.18216      .   S
    C26    O412      0.55153      .   S
    C139   O412      0.55153      .   S
    C27    O413      0.55144      .   S
    C138   O413      0.55144      .   S
    C138   O414      0.55178  1_655   S
    C24    O414      0.55178      .   S
    C138   O415      0.76215      .   S
    C137   O415      0.76215      .   S
    C139   O416      0.55179      .   S
    C25    O416      0.55179      .   S
    C139   O417      0.76219      .   S
    C136   O417      0.76219      .   S
    C16    O418      0.51253      .   S
    C208   O418      0.51253      .   S
    C17    O419      0.51254      .   S
    C209   O419      0.51254      .   S
    C21    O420      0.55001      .   S
    C137   O420      0.55001      .   S
    C20    O421      0.55002      .   S
    C136   O421      0.55002      .   S
    C136   O422      0.74036      .   S
    C208   O422      0.74036      .   S
    C136   O423      0.54839      .   S
    C22    O423      0.54839      .   S
    C137   O424      0.74037      .   S
    C209   O424      0.74037      .   S
    C137   O425      0.54839      .   S
    C23    O425      0.54839      .   S
    C242   O426      1.19415      .   S
    C7     O426      1.19415  1_655   S
    C242   O427      0.58760      .   S
    C134   O427      0.58760      .   S
    C243   O428      1.19404      .   S
    C6     O428      1.19404      .   S
    C243   O429      0.58758      .   S
    C135   O429      0.58758      .   S
    C236   O430      1.17287      .   S
    C6     O430      1.17287      .   S
    C236   O431      0.58730      .   S
    C182   O431      0.58730      .   S
    C237   O432      1.17248      .   S
    C7     O432      1.17248      .   S
    C237   O433      0.58729      .   S
    C183   O433      0.58729      .   S
    C7     O434      1.20308  1_655   S
    C240   O434      1.20308      .   S
    C7     O435      1.18094      .   S
    C239   O435      1.18094      .   S
    C7     O436      1.18811      .   S
    C245   O436      1.18811      .   S
    C6     O437      1.20312      .   S
    C241   O437      1.20312      .   S
    C6     O438      1.18086      .   S
    C238   O438      1.18086      .   S
    C6     O439      1.18769      .   S
    C244   O439      1.18769      .   S
    C182   O440      0.92050      .   S
    C14    O440      0.92050      .   S
    C183   O441      0.92036      .   S
    C15    O441      0.92036      .   S
    C135   O442      0.92016      .   S
    C15    O442      0.92016      .   S
    C134   O443      0.92011      .   S
    C14    O443      0.92011      .   S
    C208   O444      0.51348      .   S
    C19    O444      0.51348      .   S
    C208   O445      1.18636      .   S
    C0     O445      1.18636      .   S
    C209   O446      0.51332  1_655   S
    C18    O446      0.51332      .   S
    C209   O447      1.18637      .   S
    C1     O447      1.18637      .   S
    C240   O448      0.58738      .   S
    C186   O448      0.58738      .   S
    C241   O449      0.58745      .   S
    C187   O449      0.58745      .   S
    C238   O450      0.58712      .   S
    C184   O450      0.58712      .   S
    C239   O451      0.58713      .   S
    C185   O451      0.58713      .   S
    C14    O452      0.92606      .   S
    C130   O452      0.92606      .   S
    C14    O453      0.93079      .   S
    C132   O453      0.93079      .   S
    C15    O454      0.92571      .   S
    C131   O454      0.92571      .   S
    C15    O455      0.93063      .   S
    C133   O455      0.93063      .   S
    C187   O456      0.92149      .   S
    C9     O456      0.92149      .   S
    C186   O457      0.92163      .   S
    C8     O457      0.92163      .   S
    C184   O458      0.92225      .   S
    C8     O458      0.92225      .   S
    C185   O459      0.92207      .   S
    C9     O459      0.92207      .   S
    C131   O460      0.58364  1_545   S
    C203   O460      0.58364      .   S
    C130   O461      0.58336  1_545   S
    C202   O461      0.58336      .   S
    C133   O462      0.57908  1_545   S
    C205   O462      0.57908      .   S
    C132   O463      0.57923  1_545   S
    C204   O463      0.57923      .   S
    C9     O464      0.92081      .   S
    C189   O464      0.92081      .   S
    C9     O465      0.92096      .   S
    C129   O465      0.92096      .   S
    C8     O466      0.92070      .   S
    C188   O466      0.92070      .   S
    C8     O467      0.92112      .   S
    C128   O467      0.92112      .   S
    C203   O468      1.18153      .   S
    C1     O468      1.18153      .   S
    C202   O469      1.18172      .   S
    C0     O469      1.18172      .   S
    C106   O470      0.54810      .   S
    C190   O470      0.54810      .   S
    C107   O471      0.54843      .   S
    C191   O471      0.54843      .   S
    C205   O472      1.20506      .   S
    C0     O472      1.20506      .   S
    C204   O473      1.20521      .   S
    C1     O473      1.20521  1_655   S
    C102   O474      0.51335      .   S
    C245   O474      0.51335  1_655   S
    C103   O475      0.51351      .   S
    C244   O475      0.51351      .   S
    C188   O476      0.58762      .   S
    C206   O476      0.58762      .   S
    C189   O477      0.58762      .   S
    C207   O477      0.58762      .   S
    C129   O478      0.58756      .   S
    C201   O478      0.58756      .   S
    C128   O479      0.58735      .   S
    C200   O479      0.58735      .   S
    C244   O480      0.74027      .   S
    C190   O480      0.74027      .   S
    C244   O481      0.51254      .   S
    C100   O481      0.51254      .   S
    C245   O482      0.74041      .   S
    C191   O482      0.74041      .   S
    C245   O483      0.51257      .   S
    C101   O483      0.51257      .   S
    C1     O484      1.17336      .   S
    C201   O484      1.17336      .   S
    C1     O485      1.19582  1_655   S
    C206   O485      1.19582      .   S
    C1     O486      1.18311      .   S
    C211   O486      1.18311      .   S
    C0     O487      1.17324      .   S
    C200   O487      1.17324      .   S
    C0     O488      1.19570      .   S
    C207   O488      1.19570      .   S
    C0     O489      1.18312      .   S
    C210   O489      1.18312      .   S
    C190   O490      0.55011      .   S
    C104   O490      0.55011      .   S
    C190   O491      0.76289      .   S
    C193   O491      0.76289      .   S
    C191   O492      0.55005      .   S
    C105   O492      0.55005      .   S
    C191   O493      0.76249      .   S
    C192   O493      0.76249      .   S
    C108   O494      0.55202      .   S
    C192   O494      0.55202  1_655   S
    C109   O495      0.55185      .   S
    C193   O495      0.55185      .   S
    C193   O496      0.55156      .   S
    C110   O496      0.55156      .   S
    C193   O497      0.76532      .   S
    C194   O497      0.76532      .   S
    C192   O498      0.55147      .   S
    C111   O498      0.55147      .   S
    C192   O499      0.76533      .   S
    C195   O499      0.76533      .   S
    C210   O500      0.51328      .   S
    C40    O500      0.51328      .   S
    C210   O501      0.51318      .   S
    C42    O501      0.51318      .   S
    C210   O502      0.73957      .   S
    C162   O502      0.73957      .   S
    C211   O503      0.49154      .   S
    C41    O503      0.49154  1_455   S
    C211   O504      0.51318      .   S
    C43    O504      0.51318      .   S
    C211   O505      0.74015      .   S
    C163   O505      0.74015      .   S
    C113   O506      0.55160      .   S
    C194   O506      0.55160      .   S
    C112   O507      0.55151      .   S
    C195   O507      0.55151  1_655   S
    C195   O508      0.55187      .   S
    C115   O508      0.55187      .   S
    C195   O509      0.76568      .   S
    C196   O509      0.76568  1_455   S
    C194   O510      0.55175      .   S
    C114   O510      0.55175      .   S
    C194   O511      0.76572      .   S
    C197   O511      0.76572      .   S
    C65    O512      0.54966      .   S
    C162   O512      0.54966      .   S
    C64    O513      0.54969      .   S
    C163   O513      0.54969  1_655   S
    C67    O514      0.54992      .   S
    C163   O514      0.54992      .   S
    C66    O515      0.54989      .   S
    C162   O515      0.54989      .   S
    C118   O516      0.55264      .   S
    C196   O516      0.55264      .   S
    C119   O517      0.55264      .   S
    C197   O517      0.55264      .   S
    C197   O518      0.55216      .   S
    C116   O518      0.55216      .   S
    C196   O519      0.55206  1_455   S
    C117   O519      0.55206      .   S
