# CIF file generated by openbabel 2.4.90, see http://openbabel.sf.net
data_I
_chemical_name_common ''
_cell_length_a 13.968
_cell_length_b 14.562
_cell_length_c 24.165
_cell_angle_alpha 89.979
_cell_angle_beta 90.005
_cell_angle_gamma 116.971
_space_group_name_H-M_alt 'P 1'
_space_group_name_Hall 'P 1'
loop_
    _symmetry_equiv_pos_as_xyz
    x,y,z
loop_
    _atom_site_label
    _atom_site_type_symbol
    _atom_site_fract_x
    _atom_site_fract_y
    _atom_site_fract_z
    _atom_site_occupancy
    Si0     Si   0.71217   0.38570   0.50394   1.000
    Si1     Si   0.28807   0.11396   0.00391   1.000
    Si2     Si   0.28791   0.61432   0.49614   1.000
    Si3     Si   0.71200   0.88599   0.99617   1.000
