# CIF file generated by openbabel 2.4.90, see http://openbabel.sf.net
data_I
_chemical_name_common ''
_cell_length_a 13.968
_cell_length_b 14.562
_cell_length_c 24.165
_cell_angle_alpha 89.979
_cell_angle_beta 90.005
_cell_angle_gamma 116.971
_space_group_name_H-M_alt 'P 1'
_space_group_name_Hall 'P 1'
loop_
    _symmetry_equiv_pos_as_xyz
    x,y,z
loop_
    _atom_site_label
    _atom_site_type_symbol
    _atom_site_fract_x
    _atom_site_fract_y
    _atom_site_fract_z
    _atom_site_occupancy
    Mc0     Mc   0.54245   0.23936   0.04189   1.000
    Mc1     Mc   0.17670   0.87835   0.05538   1.000
    Mc2     Mc   0.16860   0.24473   0.05611   1.000
    Mc3     Mc   0.25041   0.10907   0.86852   1.000
    Mc4     Mc   0.74964   0.89087   0.13156   1.000
    Mc5     Mc   0.82338   0.12161   0.94471   1.000
    Mc6     Mc   0.83148   0.75522   0.94396   1.000
    Mc7     Mc   0.45762   0.76061   0.95813   1.000
    Mc8     Mc   0.74986   0.39053   0.36857   1.000
    Mc9     Mc   0.82358   0.62126   0.55532   1.000
    Mc10    Mc   0.83151   0.25486   0.55620   1.000
    Mc11    Mc   0.45773   0.26032   0.54188   1.000
    Mc12    Mc   0.17649   0.37876   0.44469   1.000
    Mc13    Mc   0.16856   0.74515   0.44382   1.000
    Mc14    Mc   0.54234   0.73969   0.45820   1.000
    Mc15    Mc   0.25022   0.60948   0.63152   1.000
