# CIF file generated by openbabel 2.4.90, see http://openbabel.sf.net
data_I
_chemical_name_common ''
_cell_length_a 13.968
_cell_length_b 14.562
_cell_length_c 24.165
_cell_angle_alpha 89.979
_cell_angle_beta 90.005
_cell_angle_gamma 116.971
_space_group_name_H-M_alt 'P 1'
_space_group_name_Hall 'P 1'
loop_
    _symmetry_equiv_pos_as_xyz
    x,y,z
loop_
    _atom_site_label
    _atom_site_type_symbol
    _atom_site_fract_x
    _atom_site_fract_y
    _atom_site_fract_z
    _atom_site_occupancy
    N0      N    0.28807   0.11396   0.00391   1.000
    N1      N    0.71200   0.88599   0.99617   1.000
    N2      N    0.71217   0.38570   0.50394   1.000
    N3      N    0.28791   0.61432   0.49614   1.000
    Zr4     Zr   0.99862   0.49998   0.00004   1.000
    O5      O    0.11663   0.55253   0.83754   1.000
    O6      O    0.88202   0.44745   0.16254   1.000
    O7      O    0.93058   0.34853   0.96336   1.000
    O8      O    0.06808   0.65143   0.03673   1.000
    Zr9     Zr   0.99862   0.00000   0.50004   1.000
    O10     O    0.06796   0.15166   0.46336   1.000
    O11     O    0.93069   0.84835   0.53669   1.000
    O12     O    0.88193   0.94763   0.33756   1.000
    O13     O    0.11673   0.05235   0.66252   1.000
    O14     O    0.93898   0.89348   0.46842   1.000
    O15     O    0.93900   0.39328   0.03163   1.000
    O16     O    0.05965   0.60668   0.96844   1.000
    O17     O    0.05968   0.10653   0.53165   1.000
loop_
    _geom_bond_atom_site_label_1
    _geom_bond_atom_site_label_2
    _geom_bond_distance
    _geom_bond_site_symmetry_2
    _ccdc_geom_bond_type
    Zr4    O5        4.19257  1_654   S
    N3     O5        8.52298      .   S
    Zr4    O6        4.18644      .   S
    N2     O6        8.51821      .   S
    Zr4    O7        2.15707  1_554   S
    N1     O7        6.05482  1_565   S
    Zr4    O8        2.15676  1_655   S
    N0     O8        6.05468  1_545   S
    Zr9    O10       2.15849  1_655   S
    N3     O10       6.05684      .   S
    Zr9    O11       2.15856  1_545   S
    N2     O11       6.05662      .   S
    Zr9    O12       4.18672  1_545   S
    N1     O12       8.51846  1_556   S
    Zr9    O13       4.19284  1_655   S
    N0     O13       8.52309  1_554   S
    N3     O14       7.66152  1_455   S
    Zr9    O14       1.58516  1_545   S
    Zr4    O15       1.58616      .   S
    N0     O15       7.66532  1_455   S
    Zr4    O16       1.58801  1_654   S
    N1     O16       7.64779  1_655   S
    Zr9    O17       1.58683  1_655   S
    N2     O17       7.64430  1_655   S
