# CIF file generated by openbabel 2.4.90, see http://openbabel.sf.net
data_I
_chemical_name_common ''
_cell_length_a 13.968
_cell_length_b 14.562
_cell_length_c 24.165
_cell_angle_alpha 89.979
_cell_angle_beta 90.005
_cell_angle_gamma 116.971
_space_group_name_H-M_alt 'P 1'
_space_group_name_Hall 'P 1'
loop_
    _symmetry_equiv_pos_as_xyz
    x,y,z
loop_
    _atom_site_label
    _atom_site_type_symbol
    _atom_site_fract_x
    _atom_site_fract_y
    _atom_site_fract_z
    _atom_site_occupancy
    Zr0     Zr   0.02383   0.02082   0.64880   1.000
    Zr1     Zr   0.97638   0.47867   0.14880   1.000
    Zr2     Zr   0.97626   0.97919   0.35127   1.000
    Zr3     Zr   0.02369   0.52129   0.85129   1.000
    Zr4     Zr   0.00003   0.00002   0.50004   1.000
    Zr5     Zr   0.00001   0.49999   0.00000   1.000
    Zr6     Zr   0.73304   0.36827   0.17784   1.000
    Zr7     Zr   0.26714   0.13135   0.67779   1.000
    Zr8     Zr   0.26696   0.63167   0.82226   1.000
    Zr9     Zr   0.73299   0.86870   0.32231   1.000
    Zr10    Zr   0.92666   0.13222   0.60266   1.000
    Zr11    Zr   0.23365   0.14168   0.57114   1.000
    Zr12    Zr   0.92944   0.82469   0.60380   1.000
    Zr13    Zr   0.79283   0.40266   0.25151   1.000
    Zr14    Zr   0.07346   0.36736   0.10252   1.000
    Zr15    Zr   0.76651   0.35803   0.07118   1.000
    Zr16    Zr   0.07093   0.67486   0.10390   1.000
    Zr17    Zr   0.20741   0.09697   0.75148   1.000
    Zr18    Zr   0.07341   0.86778   0.39740   1.000
    Zr19    Zr   0.76644   0.85833   0.42896   1.000
    Zr20    Zr   0.07062   0.17532   0.39620   1.000
    Zr21    Zr   0.20721   0.59731   0.74857   1.000
    Zr22    Zr   0.92663   0.63261   0.89755   1.000
    Zr23    Zr   0.23355   0.64194   0.92894   1.000
    Zr24    Zr   0.92917   0.32511   0.89621   1.000
    Zr25    Zr   0.79268   0.90301   0.24860   1.000
    Zr26    Zr   0.96114   0.14723   0.65203   1.000
    Zr27    Zr   0.93292   0.06243   0.57193   1.000
    Zr28    Zr   0.16574   0.12282   0.53301   1.000
    Zr29    Zr   0.20723   0.10788   0.62119   1.000
    Zr30    Zr   0.90571   0.84102   0.65227   1.000
    Zr31    Zr   0.00000   0.89808   0.57473   1.000
    Zr32    Zr   0.88723   0.44521   0.23395   1.000
    Zr33    Zr   0.70802   0.36102   0.21857   1.000
    Zr34    Zr   0.00000   0.35221   0.15190   1.000
    Zr35    Zr   0.06726   0.43728   0.07185   1.000
    Zr36    Zr   0.83442   0.37705   0.03304   1.000
    Zr37    Zr   0.79291   0.39170   0.12124   1.000
    Zr38    Zr   0.09490   0.65837   0.15226   1.000
    Zr39    Zr   0.99802   0.60159   0.07486   1.000
    Zr40    Zr   0.11299   0.05452   0.73395   1.000
    Zr41    Zr   0.29219   0.13858   0.71851   1.000
    Zr42    Zr   0.00000   0.85277   0.34803   1.000
    Zr43    Zr   0.06713   0.93758   0.42812   1.000
    Zr44    Zr   0.83432   0.87719   0.46710   1.000
    Zr45    Zr   0.79287   0.89213   0.37891   1.000
    Zr46    Zr   0.09433   0.15901   0.34781   1.000
    Zr47    Zr   0.99797   0.10193   0.42536   1.000
    Zr48    Zr   0.11279   0.55476   0.76611   1.000
    Zr49    Zr   0.29199   0.63891   0.78154   1.000
    Zr50    Zr   0.96118   0.64781   0.84819   1.000
    Zr51    Zr   0.93279   0.56265   0.92821   1.000
    Zr52    Zr   0.16566   0.62294   0.96700   1.000
    Zr53    Zr   0.20713   0.60827   0.87888   1.000
    Zr54    Zr   0.90523   0.34160   0.84785   1.000
    Zr55    Zr   0.00000   0.39838   0.92526   1.000
    Zr56    Zr   0.88712   0.94543   0.26611   1.000
    Zr57    Zr   0.70792   0.86147   0.28159   1.000
    O58     O    0.80047   0.36754   0.05211   1.000
    O59     O    0.91722   0.43852   0.01652   1.000
    O60     O    0.77971   0.37486   0.09621   1.000
    O61     O    0.07036   0.40232   0.08719   1.000
    O62     O    0.03447   0.63822   0.08938   1.000
    O63     O    0.03673   0.35978   0.12721   1.000
    O64     O    0.08291   0.66661   0.12808   1.000
    O65     O    0.98819   0.41544   0.15035   1.000
    O66     O    0.93180   0.46194   0.19138   1.000
    O67     O    0.72053   0.36464   0.19821   1.000
    O68     O    0.75042   0.38184   0.23504   1.000
    O69     O    0.84003   0.42393   0.24273   1.000
    O70     O    0.83990   0.92422   0.25736   1.000
    O71     O    0.75030   0.88224   0.26510   1.000
    O72     O    0.93169   0.96231   0.30869   1.000
    O73     O    0.72046   0.86508   0.30195   1.000
    O74     O    0.08247   0.16717   0.37201   1.000
    O75     O    0.98813   0.91598   0.34965   1.000
    O76     O    0.03671   0.86027   0.37272   1.000
    O77     O    0.77965   0.87523   0.40394   1.000
    O78     O    0.03429   0.13863   0.41078   1.000
    O79     O    0.07027   0.90268   0.41276   1.000
    O80     O    0.80038   0.86776   0.44803   1.000
    O81     O    0.91717   0.93860   0.48357   1.000
    O82     O    0.08289   0.06142   0.51653   1.000
    O83     O    0.19969   0.13225   0.55208   1.000
    O84     O    0.22044   0.12478   0.59617   1.000
    O85     O    0.92979   0.09732   0.58730   1.000
    O86     O    0.96472   0.86139   0.58927   1.000
    O87     O    0.94390   0.13972   0.62735   1.000
    O88     O    0.91757   0.83285   0.62804   1.000
    O89     O    0.99248   0.08402   0.65042   1.000
    O90     O    0.06841   0.03767   0.69138   1.000
    O91     O    0.27966   0.13496   0.69815   1.000
    O92     O    0.24980   0.11778   0.73500   1.000
    O93     O    0.16020   0.07575   0.74272   1.000
    O94     O    0.16000   0.57603   0.75734   1.000
    O95     O    0.24960   0.61811   0.76506   1.000
    O96     O    0.06824   0.53802   0.80870   1.000
    O97     O    0.27947   0.63529   0.80190   1.000
    O98     O    0.91720   0.33335   0.87203   1.000
    O99     O    0.99244   0.58455   0.84974   1.000
    O100    O    0.94390   0.64021   0.87287   1.000
    O101    O    0.22034   0.62510   0.90391   1.000
    O102    O    0.96459   0.36175   0.91074   1.000
    O103    O    0.92971   0.59763   0.91288   1.000
    O104    O    0.19960   0.63244   0.94797   1.000
    O105    O    0.08283   0.56147   0.98350   1.000
    O106    O    0.97837   0.04162   0.61037   1.000
    O107    O    0.96647   0.03122   0.53599   1.000
    O108    O    0.11553   0.06435   0.63500   1.000
    O109    O    0.96477   0.93092   0.65054   1.000
    O110    O    0.01191   0.95945   0.61177   1.000
    O111    O    0.00002   0.94905   0.53739   1.000
    O112    O    0.02182   0.45798   0.11033   1.000
    O113    O    0.03364   0.46864   0.03593   1.000
    O114    O    0.88464   0.43518   0.13502   1.000
    O115    O    0.03564   0.56852   0.15053   1.000
    O116    O    0.98720   0.54013   0.11183   1.000
    O117    O    0.99901   0.55079   0.03743   1.000
    O118    O    0.02170   0.95839   0.38970   1.000
    O119    O    0.03358   0.96880   0.46408   1.000
    O120    O    0.88456   0.93566   0.36509   1.000
    O121    O    0.03529   0.06910   0.34954   1.000
    O122    O    0.98711   0.04056   0.38832   1.000
    O123    O    0.99900   0.05097   0.46270   1.000
    O124    O    0.97824   0.54197   0.88975   1.000
    O125    O    0.96640   0.53132   0.96411   1.000
    O126    O    0.11541   0.56478   0.86509   1.000
    O127    O    0.96446   0.43144   0.84957   1.000
    O128    O    0.01185   0.45984   0.88828   1.000
    O129    O    0.00001   0.44919   0.96263   1.000
    N130    N    0.28807   0.11396   0.00391   1.000
    O131    O    0.62544   0.28292   0.05311   1.000
    O132    O    0.13755   0.80289   0.07342   1.000
    O133    O    0.13334   0.29025   0.07334   1.000
    O134    O    0.23484   0.10469   0.82501   1.000
    N135    N    0.71200   0.88599   0.99617   1.000
    O136    O    0.76523   0.89526   0.17507   1.000
    O137    O    0.86254   0.19708   0.92668   1.000
    O138    O    0.86674   0.70971   0.92673   1.000
    O139    O    0.37462   0.71705   0.94695   1.000
    N140    N    0.71217   0.38570   0.50394   1.000
    O141    O    0.76543   0.39492   0.32505   1.000
    O142    O    0.86276   0.69671   0.57334   1.000
    O143    O    0.86676   0.20934   0.57346   1.000
    O144    O    0.37473   0.21676   0.55308   1.000
    N145    N    0.28791   0.61432   0.49614   1.000
    O146    O    0.13730   0.30331   0.42668   1.000
    O147    O    0.13331   0.79067   0.42658   1.000
    O148    O    0.62535   0.78324   0.44700   1.000
    O149    O    0.23464   0.60508   0.67504   1.000
loop_
    _geom_bond_atom_site_label_1
    _geom_bond_atom_site_label_2
    _geom_bond_distance
    _geom_bond_site_symmetry_2
    _ccdc_geom_bond_type
    Zr36   O58       0.63003      .   S
    Zr15   O58       0.63003      .   S
    Zr36   O59       1.16570      .   S
    Zr5    O59       1.16570  1_455   S
    Zr15   O60       0.64732      .   S
    Zr37   O60       0.64732      .   S
    Zr35   O61       0.64670      .   S
    Zr14   O61       0.64670      .   S
    Zr39   O62       0.64862  1_655   S
    Zr16   O62       0.64862      .   S
    Zr14   O63       0.76159      .   S
    Zr34   O63       0.76159      .   S
    Zr16   O64       0.63407      .   S
    Zr38   O64       0.63407      .   S
    Zr1    O65       1.00710      .   S
    Zr34   O65       1.00710  1_455   S
    Zr1    O66       1.16954      .   S
    Zr32   O66       1.16954      .   S
    Zr6    O67       0.51685      .   S
    Zr33   O67       0.51685      .   S
    Zr33   O68       0.66204      .   S
    Zr13   O68       0.66204      .   S
    Zr32   O69       0.62478      .   S
    Zr13   O69       0.62478      .   S
    Zr25   O70       0.62481      .   S
    Zr56   O70       0.62481      .   S
    Zr25   O71       0.66205      .   S
    Zr57   O71       0.66205      .   S
    Zr56   O72       1.16962      .   S
    Zr2    O72       1.16962      .   S
    Zr57   O73       0.51684      .   S
    Zr9    O73       0.51684      .   S
    Zr46   O74       0.63347      .   S
    Zr20   O74       0.63347      .   S
    Zr42   O75       1.00738  1_455   S
    Zr2    O75       1.00738      .   S
    Zr42   O76       0.76144      .   S
    Zr18   O76       0.76144      .   S
    Zr45   O77       0.64734      .   S
    Zr19   O77       0.64734      .   S
    Zr20   O78       0.64891      .   S
    Zr47   O78       0.64891  1_655   S
    Zr18   O79       0.64679      .   S
    Zr43   O79       0.64679      .   S
    Zr19   O80       0.63003      .   S
    Zr44   O80       0.63003      .   S
    Zr44   O81       1.16574      .   S
    Zr4    O81       1.16574  1_445   S
    Zr4    O82       1.16579      .   S
    Zr28   O82       1.16579      .   S
    Zr28   O83       0.63004      .   S
    Zr11   O83       0.63004      .   S
    Zr11   O84       0.64733      .   S
    Zr29   O84       0.64733      .   S
    Zr27   O85       0.64677      .   S
    Zr10   O85       0.64677      .   S
    Zr31   O86       0.64249  1_455   S
    Zr12   O86       0.64249      .   S
    Zr10   O87       0.63397      .   S
    Zr26   O87       0.63397      .   S
    Zr12   O88       0.63442      .   S
    Zr30   O88       0.63442      .   S
    Zr0    O89       1.18566  1_455   S
    Zr26   O89       1.18566      .   S
    Zr0    O90       1.16959      .   S
    Zr40   O90       1.16959      .   S
    Zr7    O91       0.51682      .   S
    Zr41   O91       0.51682      .   S
    Zr41   O92       0.66205      .   S
    Zr17   O92       0.66205      .   S
    Zr40   O93       0.62479      .   S
    Zr17   O93       0.62479      .   S
    Zr21   O94       0.62481      .   S
    Zr48   O94       0.62481      .   S
    Zr21   O95       0.66212      .   S
    Zr49   O95       0.66212      .   S
    Zr48   O96       1.16969      .   S
    Zr3    O96       1.16969      .   S
    Zr49   O97       0.51675      .   S
    Zr8    O97       0.51675      .   S
    Zr54   O98       0.63398      .   S
    Zr24   O98       0.63398      .   S
    Zr50   O99       1.18551      .   S
    Zr3    O99       1.18551  1_455   S
    Zr50   O100      0.63396      .   S
    Zr22   O100      0.63396      .   S
    Zr53   O101      0.64736      .   S
    Zr23   O101      0.64736      .   S
    Zr24   O102      0.64285      .   S
    Zr55   O102      0.64285  1_455   S
    Zr22   O103      0.64677      .   S
    Zr51   O103      0.64677      .   S
    Zr23   O104      0.62923      .   S
    Zr52   O104      0.62923      .   S
    Zr52   O105      1.16582      .   S
    Zr5    O105      1.16582  1_554   S
    Zr27   O106      1.23759      .   S
    Zr0    O106      1.23759  1_455   S
    Zr27   O107      1.17225      .   S
    Zr4    O107      1.17225  1_455   S
    Zr29   O108      1.19048      .   S
    Zr0    O108      1.19048      .   S
    Zr30   O109      1.19020      .   S
    Zr0    O109      1.19020  1_445   S
    Zr31   O110      1.22187      .   S
    Zr0    O110      1.22187  1_545   S
    Zr31   O111      1.16818      .   S
    Zr4    O111      1.16818  1_545   S
    Zr35   O112      1.23774      .   S
    Zr1    O112      1.23774  1_655   S
    Zr35   O113      1.17342      .   S
    Zr5    O113      1.17342      .   S
    Zr37   O114      1.19070      .   S
    Zr1    O114      1.19070      .   S
    Zr38   O115      1.19014      .   S
    Zr1    O115      1.19014  1_655   S
    Zr39   O116      1.22420      .   S
    Zr1    O116      1.22420      .   S
    Zr39   O117      1.17274      .   S
    Zr5    O117      1.17274  1_455   S
    Zr43   O118      1.23728      .   S
    Zr2    O118      1.23728  1_655   S
    Zr43   O119      1.17261      .   S
    Zr4    O119      1.17261  1_545   S
    Zr45   O120      1.19048      .   S
    Zr2    O120      1.19048      .   S
    Zr46   O121      1.19018      .   S
    Zr2    O121      1.19018  1_665   S
    Zr47   O122      1.22500      .   S
    Zr2    O122      1.22500  1_565   S
    Zr47   O123      1.17224      .   S
    Zr4    O123      1.17224  1_455   S
    Zr51   O124      1.23744      .   S
    Zr3    O124      1.23744  1_455   S
    Zr51   O125      1.17254      .   S
    Zr5    O125      1.17254  1_454   S
    Zr53   O126      1.19061      .   S
    Zr3    O126      1.19061      .   S
    Zr54   O127      1.19001      .   S
    Zr3    O127      1.19001  1_455   S
    Zr55   O128      1.22150      .   S
    Zr3    O128      1.22150      .   S
    Zr55   O129      1.16758      .   S
    Zr5    O129      1.16758  1_554   S
    N130   O131      4.37707      .   S
    Zr15   O131      1.82063      .   S
    N130   O132      4.37237  1_545   S
    Zr16   O132      1.81924      .   S
    N130   O133      4.37166      .   S
    Zr14   O133      1.81944      .   S
    N130   O134      4.37834  1_554   S
    Zr17   O134      1.81034      .   S
    N135   O136      4.37832  1_556   S
    Zr25   O136      1.81039      .   S
    N135   O137      4.37238  1_565   S
    Zr24   O137      1.81919      .   S
    N135   O138      4.37173      .   S
    Zr22   O138      1.81940      .   S
    N135   O139      4.37720      .   S
    Zr23   O139      1.82037      .   S
    N140   O141      4.37828      .   S
    Zr13   O141      1.81043      .   S
    N140   O142      4.37163      .   S
    Zr12   O142      1.81912      .   S
    N140   O143      4.37117      .   S
    Zr10   O143      1.81952      .   S
    N140   O144      4.37708      .   S
    Zr11   O144      1.82062      .   S
    N145   O146      4.37225      .   S
    Zr20   O146      1.81930      .   S
    N145   O147      4.37148      .   S
    Zr18   O147      1.81926      .   S
    N145   O148      4.37702      .   S
    Zr19   O148      1.82061      .   S
    N145   O149      4.37842      .   S
    Zr21   O149      1.81037      .   S
