# CIF file generated by openbabel 2.4.90, see http://openbabel.sf.net
data_I
_chemical_name_common ''
_cell_length_a 13.968
_cell_length_b 14.562
_cell_length_c 24.165
_cell_angle_alpha 89.979
_cell_angle_beta 90.005
_cell_angle_gamma 116.971
_space_group_name_H-M_alt 'P 1'
_space_group_name_Hall 'P 1'
loop_
    _symmetry_equiv_pos_as_xyz
    x,y,z
loop_
    _atom_site_label
    _atom_site_type_symbol
    _atom_site_fract_x
    _atom_site_fract_y
    _atom_site_fract_z
    _atom_site_occupancy
    N0      N    0.28807   0.11396   0.00391   1.000
    N1      N    0.71200   0.88599   0.99617   1.000
    N2      N    0.71217   0.38570   0.50394   1.000
    N3      N    0.28791   0.61432   0.49614   1.000
    Zr4     Zr   0.99862   0.49998   0.00004   1.000
    O5      O    0.93268   0.60485   0.96339   1.000
    O6      O    0.06598   0.39512   0.03669   1.000
    O7      O    0.11663   0.55253   0.83754   1.000
    O8      O    0.88202   0.44745   0.16254   1.000
    O9      O    0.93058   0.34853   0.96336   1.000
    O10     O    0.81203   0.39145   0.02658   1.000
    O11     O    0.06808   0.65143   0.03673   1.000
    O12     O    0.18662   0.60851   0.97350   1.000
    Zr13    Zr   0.99862   0.00000   0.50004   1.000
    O14     O    0.93269   0.10467   0.53675   1.000
    O15     O    0.06796   0.15166   0.46336   1.000
    O16     O    0.06597   0.89534   0.46331   1.000
    O17     O    0.93069   0.84835   0.53669   1.000
    O18     O    0.18668   0.10838   0.52656   1.000
    O19     O    0.88193   0.94763   0.33756   1.000
    O20     O    0.11673   0.05235   0.66252   1.000
    O21     O    0.81199   0.89162   0.47352   1.000
loop_
    _geom_bond_atom_site_label_1
    _geom_bond_atom_site_label_2
    _geom_bond_distance
    _geom_bond_site_symmetry_2
    _ccdc_geom_bond_type
    Zr4    O5        2.28897  1_554   S
    N1     O5        6.19178      .   S
    Zr4    O6        2.30300  1_655   S
    N0     O6        6.20771      .   S
    Zr4    O7        4.19257  1_654   S
    N3     O7        8.52298      .   S
    Zr4    O8        4.18644      .   S
    N2     O8        8.51821      .   S
    Zr4    O9        2.15707  1_554   S
    N1     O9        6.05482  1_565   S
    Zr4    O10       2.44227      .   S
    N0     O10       9.23121  1_455   S
    Zr4    O11       2.15676  1_655   S
    N0     O11       6.05468  1_545   S
    Zr4    O12       2.45770  1_654   S
    N1     O12       9.21279  1_655   S
    Zr13   O14       2.28747      .   S
    N2     O14       6.18836      .   S
    Zr13   O15       2.15849  1_655   S
    N3     O15       6.05684      .   S
    Zr13   O16       2.30154  1_645   S
    N3     O16       6.20409      .   S
    Zr13   O17       2.15856  1_545   S
    N2     O17       6.05662      .   S
    Zr13   O18       2.45791  1_655   S
    N2     O18       9.20938  1_655   S
    Zr13   O19       4.18672  1_545   S
    N1     O19       8.51846  1_556   S
    Zr13   O20       4.19284  1_655   S
    N0     O20       8.52309  1_554   S
    Zr13   O21       2.44256  1_545   S
    N3     O21       9.22740  1_455   S
