# CIF file generated by openbabel 2.4.90, see http://openbabel.sf.net
data_I
_chemical_name_common 'VESTA_phase_1'
_cell_length_a 15.41
_cell_length_b 21.433
_cell_length_c 21.434
_cell_angle_alpha 119.984
_cell_angle_beta 89.984
_cell_angle_gamma 90.008
_space_group_name_H-M_alt 'P 1'
_space_group_name_Hall 'P 1'
loop_
    _symmetry_equiv_pos_as_xyz
    x,y,z
loop_
    _atom_site_label
    _atom_site_type_symbol
    _atom_site_fract_x
    _atom_site_fract_y
    _atom_site_fract_z
    _atom_site_occupancy
    Zn0     Zn   0.00001   0.30083   0.69910   1.000
    Zn1     Zn   0.50002   0.30083   0.69910   1.000
    Zn2     Zn   0.33335   0.39845   0.69915   1.000
    Zn3     Zn   0.83336   0.39845   0.69915   1.000
    Zn4     Zn   0.16666   0.30082   0.60155   1.000
    Zn5     Zn   0.66667   0.30082   0.60155   1.000
    Zn6     Zn   0.99999   0.69915   0.30082   1.000
    Zn7     Zn   0.50000   0.69915   0.30082   1.000
    Zn8     Zn   0.33335   0.60160   0.30085   1.000
    Zn9     Zn   0.83336   0.60160   0.30085   1.000
    Zn10    Zn   0.16667   0.69916   0.39845   1.000
    Zn11    Zn   0.66668   0.69916   0.39845   1.000
    H12     H    0.06718   0.15364   0.40672   1.000
    H13     H    0.56720   0.15364   0.40672   1.000
    H14     H    0.27059   0.06634   0.41130   1.000
    H15     H    0.77060   0.06634   0.41130   1.000
    H16     H    0.33798   0.15978   0.52402   1.000
    H17     H    0.83799   0.15978   0.52402   1.000
    H18     H    0.50079   0.06172   0.29406   1.000
    H19     H    0.00000   0.06172   0.29406   1.000
    H20     H    0.40048   0.25314   0.84620   1.000
    H21     H    0.90049   0.25314   0.84628   1.000
    H22     H    0.10394   0.34508   0.93371   1.000
    H23     H    0.60394   0.34508   0.93370   1.000
    H24     H    0.17133   0.36432   0.84018   1.000
    H25     H    0.67134   0.36432   0.84018   1.000
    H26     H    0.33407   0.23243   0.93820   1.000
    H27     H    0.83408   0.23242   0.93827   1.000
    H28     H    0.23375   0.59316   0.74682   1.000
    H29     H    0.73376   0.59316   0.74682   1.000
    H30     H    0.43723   0.58875   0.65499   1.000
    H31     H    0.93724   0.58875   0.65499   1.000
    H32     H    0.00459   0.47596   0.63563   1.000
    H33     H    0.50460   0.47596   0.63563   1.000
    H34     H    0.16737   0.70589   0.76763   1.000
    H35     H    0.66738   0.70589   0.76763   1.000
    H36     H    0.06714   0.84632   0.59317   1.000
    H37     H    0.56715   0.84633   0.59317   1.000
    H38     H    0.27061   0.93375   0.58871   1.000
    H39     H    0.77063   0.93375   0.58871   1.000
    H40     H    0.33797   0.84027   0.47596   1.000
    H41     H    0.83798   0.84027   0.47596   1.000
    H42     H    0.50078   0.93829   0.70586   1.000
    H43     H    0.00000   0.93828   0.70586   1.000
    H44     H    0.40048   0.74688   0.15362   1.000
    H45     H    0.90049   0.74689   0.15362   1.000
    H46     H    0.10395   0.65488   0.06630   1.000
    H47     H    0.60396   0.65489   0.06633   1.000
    H48     H    0.17137   0.63565   0.15982   1.000
    H49     H    0.67138   0.63565   0.15982   1.000
    H50     H    0.33404   0.76759   0.06167   1.000
    H51     H    0.83405   0.76759   0.06167   1.000
    H52     H    0.23379   0.40684   0.25312   1.000
    H53     H    0.73380   0.40684   0.25312   1.000
    H54     H    0.43718   0.41120   0.34490   1.000
    H55     H    0.93720   0.41120   0.34490   1.000
    H56     H    0.00456   0.52401   0.36428   1.000
    H57     H    0.50457   0.52401   0.36428   1.000
    H58     H    0.16740   0.29410   0.23230   1.000
    H59     H    0.66741   0.29410   0.23230   1.000
    H60     H    0.26623   0.74687   0.59320   1.000
    H61     H    0.76625   0.74687   0.59320   1.000
    H62     H    0.06280   0.65506   0.58873   1.000
    H63     H    0.56281   0.65506   0.58873   1.000
    H64     H    0.49542   0.63569   0.47596   1.000
    H65     H    0.99543   0.63569   0.47596   1.000
    H66     H    0.33263   0.76768   0.70591   1.000
    H67     H    0.83264   0.76769   0.70591   1.000
    H68     H    0.43284   0.40678   0.15366   1.000
    H69     H    0.93285   0.40678   0.15366   1.000
    H70     H    0.22942   0.41131   0.06629   1.000
    H71     H    0.72943   0.41131   0.06629   1.000
    H72     H    0.16205   0.52404   0.15977   1.000
    H73     H    0.66206   0.52404   0.15977   1.000
    H74     H    0.99922   0.29410   0.06171   1.000
    H75     H    0.49923   0.29410   0.06171   1.000
    H76     H    0.09955   0.84631   0.25314   1.000
    H77     H    0.59956   0.84631   0.25314   1.000
    H78     H    0.39605   0.93375   0.34510   1.000
    H79     H    0.89607   0.93375   0.34510   1.000
    H80     H    0.32866   0.84023   0.36435   1.000
    H81     H    0.82867   0.84023   0.36435   1.000
    H82     H    0.16597   0.93829   0.23241   1.000
    H83     H    0.66598   0.93829   0.23241   1.000
    H84     H    0.26624   0.25317   0.40689   1.000
    H85     H    0.76625   0.25317   0.40689   1.000
    H86     H    0.06281   0.34494   0.41115   1.000
    H87     H    0.56282   0.34494   0.41115   1.000
    H88     H    0.49547   0.36433   0.52398   1.000
    H89     H    0.99548   0.36433   0.52398   1.000
    H90     H    0.33260   0.23233   0.29412   1.000
    H91     H    0.83261   0.23233   0.29412   1.000
    H92     H    0.43286   0.59325   0.84636   1.000
    H93     H    0.93287   0.59325   0.84630   1.000
    H94     H    0.22937   0.58865   0.93369   1.000
    H95     H    0.72938   0.58865   0.93300   1.000
    H96     H    0.16199   0.47594   0.84021   1.000
    H97     H    0.66200   0.47593   0.84020   1.000
    H98     H    0.99925   0.70591   0.93830   1.000
    H99     H    0.49926   0.70591   0.93831   1.000
    H100    H    0.09953   0.15366   0.74680   1.000
    H101    H    0.59954   0.15366   0.74680   1.000
    H102    H    0.39610   0.06636   0.65493   1.000
    H103    H    0.89612   0.06636   0.65493   1.000
    H104    H    0.32868   0.15984   0.63567   1.000
    H105    H    0.82869   0.15984   0.63567   1.000
    H106    H    0.16597   0.06171   0.76761   1.000
    H107    H    0.66599   0.06172   0.76761   1.000
    C108    C    0.00031   0.21801   0.54070   1.000
    C109    C    0.50032   0.21801   0.54077   1.000
    C110    C    0.00231   0.13395   0.40746   1.000
    C111    C    0.50232   0.13395   0.40746   1.000
    C112    C    0.33581   0.08509   0.40980   1.000
    C113    C    0.83582   0.08509   0.40980   1.000
    C114    C    0.37381   0.13732   0.47360   1.000
    C115    C    0.87382   0.13732   0.47360   1.000
    C116    C    0.45784   0.16213   0.47303   1.000
    C117    C    0.95785   0.16213   0.47303   1.000
    C118    C    0.46418   0.08169   0.34369   1.000
    C119    C    0.96420   0.08169   0.34369   1.000
    C120    C    0.38048   0.05624   0.34395   1.000
    C121    C    0.88050   0.05624   0.34395   1.000
    C122    C    0.26983   0.04326   0.25343   1.000
    C123    C    0.76984   0.04326   0.25343   1.000
    C124    C    0.33361   0.32286   0.78190   1.000
    C125    C    0.83362   0.32286   0.78191   1.000
    C126    C    0.33562   0.27358   0.86599   1.000
    C127    C    0.83563   0.27358   0.86599   1.000
    C128    C    0.16914   0.32481   0.91493   1.000
    C129    C    0.66915   0.32481   0.91493   1.000
    C130    C    0.20714   0.33637   0.86266   1.000
    C131    C    0.70715   0.33637   0.86266   1.000
    C132    C    0.29115   0.31098   0.83782   1.000
    C133    C    0.79116   0.31098   0.83782   1.000
    C134    C    0.29748   0.26208   0.91829   1.000
    C135    C    0.79749   0.26208   0.91829   1.000
    C136    C    0.21379   0.28779   0.94376   1.000
    C137    C    0.71380   0.28779   0.94376   1.000
    C138    C    0.10317   0.21020   0.95674   1.000
    C139    C    0.60317   0.21020   0.95674   1.000
    C140    C    0.16688   0.45912   0.67705   1.000
    C141    C    0.66690   0.45912   0.67705   1.000
    C142    C    0.16889   0.59246   0.72640   1.000
    C143    C    0.66890   0.59246   0.72640   1.000
    C144    C    0.00242   0.59021   0.67522   1.000
    C145    C    0.50243   0.59021   0.67520   1.000
    C146    C    0.04041   0.52638   0.66361   1.000
    C147    C    0.54042   0.52638   0.66361   1.000
    C148    C    0.12442   0.52690   0.68897   1.000
    C149    C    0.62443   0.52690   0.68897   1.000
    C150    C    0.13077   0.65627   0.73795   1.000
    C151    C    0.63078   0.65627   0.73795   1.000
    C152    C    0.04710   0.65604   0.71225   1.000
    C153    C    0.54711   0.65604   0.71225   1.000
    C154    C    0.43649   0.74658   0.78981   1.000
    C155    C    0.93650   0.74658   0.78981   1.000
    C156    C    0.00025   0.78197   0.45915   1.000
    C157    C    0.50027   0.78198   0.45915   1.000
    C158    C    0.00228   0.86604   0.59245   1.000
    C159    C    0.50229   0.86604   0.59245   1.000
    C160    C    0.33582   0.91497   0.59018   1.000
    C161    C    0.83583   0.91497   0.59018   1.000
    C162    C    0.37380   0.86272   0.52637   1.000
    C163    C    0.87381   0.86272   0.52637   1.000
    C164    C    0.45781   0.83788   0.52690   1.000
    C165    C    0.95782   0.83788   0.52690   1.000
    C166    C    0.46418   0.91832   0.65624   1.000
    C167    C    0.96419   0.91832   0.65624   1.000
    C168    C    0.38049   0.94379   0.65601   1.000
    C169    C    0.88050   0.94380   0.65601   1.000
    C170    C    0.26983   0.95675   0.74655   1.000
    C171    C    0.76984   0.95675   0.74655   1.000
    C172    C    0.33365   0.67715   0.21803   1.000
    C173    C    0.83366   0.67716   0.21804   1.000
    C174    C    0.33562   0.72643   0.13394   1.000
    C175    C    0.83563   0.72643   0.13395   1.000
    C176    C    0.16915   0.67517   0.08500   1.000
    C177    C    0.66916   0.67517   0.08508   1.000
    C178    C    0.20717   0.66362   0.13730   1.000
    C179    C    0.70718   0.66362   0.13733   1.000
    C180    C    0.29117   0.68902   0.16214   1.000
    C181    C    0.79118   0.68903   0.16214   1.000
    C182    C    0.29747   0.73793   0.08167   1.000
    C183    C    0.79748   0.73793   0.08167   1.000
    C184    C    0.21378   0.71220   0.05623   1.000
    C185    C    0.71379   0.71220   0.05620   1.000
    C186    C    0.10316   0.78979   0.04320   1.000
    C187    C    0.60317   0.78979   0.04320   1.000
    C188    C    0.16689   0.54087   0.32290   1.000
    C189    C    0.66691   0.54087   0.32290   1.000
    C190    C    0.16891   0.40753   0.27353   1.000
    C191    C    0.66893   0.40753   0.27353   1.000
    C192    C    0.00240   0.40976   0.32468   1.000
    C193    C    0.50241   0.40976   0.32468   1.000
    C194    C    0.04039   0.47359   0.33630   1.000
    C195    C    0.54040   0.47359   0.33630   1.000
    C196    C    0.12442   0.47308   0.31090   1.000
    C197    C    0.62443   0.47308   0.31095   1.000
    C198    C    0.13079   0.34372   0.26197   1.000
    C199    C    0.63080   0.34372   0.26197   1.000
    C200    C    0.04710   0.34393   0.28767   1.000
    C201    C    0.54711   0.34393   0.28767   1.000
    C202    C    0.43649   0.25340   0.21015   1.000
    C203    C    0.93650   0.25340   0.21015   1.000
    C204    C    0.33310   0.67710   0.45915   1.000
    C205    C    0.83311   0.67710   0.45915   1.000
    C206    C    0.33110   0.72646   0.59240   1.000
    C207    C    0.83111   0.72646   0.59240   1.000
    C208    C    0.49760   0.67529   0.59020   1.000
    C209    C    0.99761   0.67529   0.59020   1.000
    C210    C    0.45960   0.66367   0.52638   1.000
    C211    C    0.95961   0.66367   0.52638   1.000
    C212    C    0.37558   0.68903   0.52692   1.000
    C213    C    0.87559   0.68903   0.52692   1.000
    C214    C    0.36923   0.73801   0.65628   1.000
    C215    C    0.86924   0.73801   0.65628   1.000
    C216    C    0.45291   0.71230   0.65604   1.000
    C217    C    0.95292   0.71230   0.65604   1.000
    C218    C    0.06353   0.78983   0.74656   1.000
    C219    C    0.56354   0.78983   0.74656   1.000
    C220    C    0.49973   0.54082   0.21802   1.000
    C221    C    0.99974   0.54082   0.21802   1.000
    C222    C    0.49771   0.40751   0.13396   1.000
    C223    C    0.99772   0.40751   0.13396   1.000
    C224    C    0.16421   0.40982   0.08506   1.000
    C225    C    0.66422   0.40982   0.08506   1.000
    C226    C    0.12622   0.47362   0.13730   1.000
    C227    C    0.62623   0.47362   0.13730   1.000
    C228    C    0.04219   0.47307   0.16213   1.000
    C229    C    0.54220   0.47307   0.16213   1.000
    C230    C    0.03583   0.34373   0.08160   1.000
    C231    C    0.53584   0.34373   0.08160   1.000
    C232    C    0.11953   0.34397   0.05623   1.000
    C233    C    0.61954   0.34397   0.05623   1.000
    C234    C    0.23018   0.25343   0.04324   1.000
    C235    C    0.73019   0.25343   0.04324   1.000
    C236    C    0.16641   0.78195   0.32287   1.000
    C237    C    0.66642   0.78195   0.32287   1.000
    C238    C    0.16441   0.86602   0.27358   1.000
    C239    C    0.66442   0.86602   0.27358   1.000
    C240    C    0.33086   0.91496   0.32482   1.000
    C241    C    0.83088   0.91496   0.32482   1.000
    C242    C    0.29286   0.86270   0.33639   1.000
    C243    C    0.79288   0.86270   0.33639   1.000
    C244    C    0.20887   0.83786   0.31099   1.000
    C245    C    0.70888   0.83786   0.31099   1.000
    C246    C    0.20255   0.91831   0.26207   1.000
    C247    C    0.70256   0.91831   0.26207   1.000
    C248    C    0.28622   0.94378   0.28770   1.000
    C249    C    0.78623   0.94378   0.28779   1.000
    C250    C    0.39685   0.95675   0.21018   1.000
    C251    C    0.89686   0.95675   0.21018   1.000
    C252    C    0.33315   0.32293   0.54087   1.000
    C253    C    0.83316   0.32293   0.54087   1.000
    C254    C    0.33111   0.27357   0.40755   1.000
    C255    C    0.83112   0.27357   0.40755   1.000
    C256    C    0.49761   0.32472   0.40973   1.000
    C257    C    0.99762   0.32472   0.40973   1.000
    C258    C    0.45963   0.33635   0.47350   1.000
    C259    C    0.95965   0.33635   0.47358   1.000
    C260    C    0.37561   0.31100   0.47308   1.000
    C261    C    0.87562   0.31100   0.47308   1.000
    C262    C    0.36921   0.26201   0.34373   1.000
    C263    C    0.86923   0.26200   0.34373   1.000
    C264    C    0.45290   0.28770   0.34392   1.000
    C265    C    0.95291   0.28770   0.34392   1.000
    C266    C    0.06352   0.21016   0.25339   1.000
    C267    C    0.56353   0.21016   0.25339   1.000
    C268    C    0.49971   0.45919   0.78196   1.000
    C269    C    0.99972   0.45919   0.78195   1.000
    C270    C    0.49771   0.59250   0.86605   1.000
    C271    C    0.99773   0.59250   0.86605   1.000
    C272    C    0.16417   0.59016   0.91493   1.000
    C273    C    0.66418   0.59016   0.91490   1.000
    C274    C    0.12617   0.52636   0.86269   1.000
    C275    C    0.62618   0.52636   0.86269   1.000
    C276    C    0.04217   0.52693   0.83786   1.000
    C277    C    0.54218   0.52693   0.83787   1.000
    C278    C    0.03584   0.65627   0.91830   1.000
    C279    C    0.53585   0.65627   0.91833   1.000
    C280    C    0.11952   0.65601   0.94378   1.000
    C281    C    0.61953   0.65601   0.94378   1.000
    C282    C    0.23018   0.74655   0.95673   1.000
    C283    C    0.73019   0.74655   0.95673   1.000
    C284    C    0.16638   0.21804   0.67712   1.000
    C285    C    0.66639   0.21804   0.67710   1.000
    C286    C    0.16440   0.13398   0.72644   1.000
    C287    C    0.66441   0.13398   0.72644   1.000
    C288    C    0.33089   0.08511   0.67520   1.000
    C289    C    0.83091   0.08511   0.67520   1.000
    C290    C    0.29288   0.13735   0.66364   1.000
    C291    C    0.79289   0.13735   0.66360   1.000
    C292    C    0.20885   0.16216   0.68902   1.000
    C293    C    0.70887   0.16216   0.68902   1.000
    C294    C    0.20255   0.08171   0.73795   1.000
    C295    C    0.70256   0.08171   0.73795   1.000
    C296    C    0.28624   0.05626   0.71223   1.000
    C297    C    0.78626   0.05626   0.71223   1.000
    C298    C    0.39685   0.04326   0.78979   1.000
    C299    C    0.89687   0.04326   0.78979   1.000
    C300    C    0.33335   0.00002   0.27486   1.000
    C301    C    0.83336   0.00002   0.27486   1.000
    C302    C    0.16666   0.27486   0.00000   1.000
    C303    C    0.66667   0.27486   0.00000   1.000
    C304    C    0.00001   0.72518   0.72516   1.000
    C305    C    0.50002   0.72518   0.72516   1.000
    C306    C    0.33336   0.00002   0.72513   1.000
    C307    C    0.83337   0.00002   0.72513   1.000
    C308    C    0.16666   0.72511   0.00000   1.000
    C309    C    0.66667   0.72511   0.00000   1.000
    C310    C    0.00000   0.27480   0.27478   1.000
    C311    C    0.50000   0.27480   0.27478   1.000
    O312    O    0.45960   0.23793   0.59990   1.000
    O313    O    0.95961   0.23792   0.59994   1.000
    O314    O    0.07352   0.24158   0.53430   1.000
    O315    O    0.57354   0.24158   0.53430   1.000
    O316    O    0.29291   0.36214   0.76204   1.000
    O317    O    0.79292   0.36214   0.76200   1.000
    O318    O    0.40678   0.29278   0.75828   1.000
    O319    O    0.90680   0.29278   0.75828   1.000
    O320    O    0.12621   0.39998   0.63772   1.000
    O321    O    0.62622   0.39998   0.63772   1.000
    O322    O    0.24005   0.46556   0.70712   1.000
    O323    O    0.74006   0.46556   0.70712   1.000
    O324    O    0.45957   0.76209   0.40000   1.000
    O325    O    0.95958   0.76209   0.40000   1.000
    O326    O    0.07343   0.75836   0.46561   1.000
    O327    O    0.57344   0.75836   0.46561   1.000
    O328    O    0.29294   0.63789   0.23794   1.000
    O329    O    0.79295   0.63789   0.23794   1.000
    O330    O    0.40684   0.70721   0.24162   1.000
    O331    O    0.90685   0.70720   0.24160   1.000
    O332    O    0.12620   0.60001   0.36224   1.000
    O333    O    0.62621   0.60001   0.36224   1.000
    O334    O    0.24009   0.53445   0.29285   1.000
    O335    O    0.74010   0.53445   0.29285   1.000
    O336    O    0.37379   0.63778   0.40000   1.000
    O337    O    0.87380   0.63778   0.40000   1.000
    O338    O    0.25990   0.70714   0.46560   1.000
    O339    O    0.75991   0.70714   0.46560   1.000
    O340    O    0.04043   0.59998   0.23791   1.000
    O341    O    0.54044   0.59998   0.23791   1.000
    O342    O    0.42653   0.53436   0.24163   1.000
    O343    O    0.92654   0.53436   0.24163   1.000
    O344    O    0.20710   0.76209   0.36210   1.000
    O345    O    0.70711   0.76209   0.36217   1.000
    O346    O    0.09324   0.75831   0.29200   1.000
    O347    O    0.59326   0.75831   0.29280   1.000
    O348    O    0.37382   0.36228   0.60000   1.000
    O349    O    0.87383   0.36228   0.60000   1.000
    O350    O    0.25998   0.29285   0.53445   1.000
    O351    O    0.75999   0.29285   0.53445   1.000
    O352    O    0.04040   0.40003   0.76203   1.000
    O353    O    0.54042   0.40003   0.76202   1.000
    O354    O    0.42652   0.46567   0.75838   1.000
    O355    O    0.92653   0.46567   0.75838   1.000
    O356    O    0.20709   0.23791   0.63783   1.000
    O357    O    0.70710   0.23791   0.63783   1.000
    O358    O    0.09318   0.24164   0.70718   1.000
    O359    O    0.59319   0.24164   0.70710   1.000
    F360    F    0.20346   0.07207   0.30168   1.000
    F361    F    0.70348   0.07207   0.30168   1.000
    F362    F    0.23354   0.00283   0.18721   1.000
    F363    F    0.73355   0.00283   0.18721   1.000
    F364    F    0.31117   0.09893   0.25318   1.000
    F365    F    0.81118   0.09893   0.25318   1.000
    F366    F    0.03680   0.22963   0.92793   1.000
    F367    F    0.53681   0.22963   0.92793   1.000
    F368    F    0.06686   0.18438   0.99718   1.000
    F369    F    0.56687   0.18438   0.99718   1.000
    F370    F    0.14452   0.15431   0.90108   1.000
    F371    F    0.64453   0.15431   0.90108   1.000
    F372    F    0.37013   0.69832   0.77038   1.000
    F373    F    0.87014   0.69832   0.77038   1.000
    F374    F    0.40020   0.81281   0.81562   1.000
    F375    F    0.90021   0.81281   0.81562   1.000
    F376    F    0.47783   0.74680   0.84570   1.000
    F377    F    0.97784   0.74680   0.84570   1.000
    F378    F    0.20347   0.92793   0.69831   1.000
    F379    F    0.70348   0.92793   0.69831   1.000
    F380    F    0.23353   0.99717   0.81278   1.000
    F381    F    0.73354   0.99717   0.81278   1.000
    F382    F    0.31117   0.90108   0.74679   1.000
    F383    F    0.81118   0.90108   0.74670   1.000
    F384    F    0.03678   0.77036   0.07200   1.000
    F385    F    0.53680   0.77036   0.07200   1.000
    F386    F    0.06686   0.81560   0.00280   1.000
    F387    F    0.56688   0.81560   0.00280   1.000
    F388    F    0.14450   0.84568   0.09889   1.000
    F389    F    0.64451   0.84568   0.09889   1.000
    F390    F    0.37013   0.30166   0.22960   1.000
    F391    F    0.87014   0.30166   0.22960   1.000
    F392    F    0.40020   0.18717   0.18436   1.000
    F393    F    0.90021   0.18717   0.18436   1.000
    F394    F    0.47785   0.25318   0.15425   1.000
    F395    F    0.97786   0.25318   0.15425   1.000
    F396    F    0.12989   0.77038   0.69830   1.000
    F397    F    0.62990   0.77038   0.69830   1.000
    F398    F    0.09980   0.81562   0.81270   1.000
    F399    F    0.59982   0.81562   0.81270   1.000
    F400    F    0.02217   0.84573   0.74679   1.000
    F401    F    0.52218   0.84573   0.74679   1.000
    F402    F    0.29654   0.30168   0.07205   1.000
    F403    F    0.79655   0.30168   0.07205   1.000
    F404    F    0.26648   0.18721   0.00282   1.000
    F405    F    0.76649   0.18721   0.00282   1.000
    F406    F    0.18884   0.25320   0.09892   1.000
    F407    F    0.68886   0.25320   0.09892   1.000
    F408    F    0.46322   0.92793   0.22961   1.000
    F409    F    0.96323   0.92793   0.22961   1.000
    F410    F    0.43315   0.99718   0.18436   1.000
    F411    F    0.93316   0.99718   0.18436   1.000
    F412    F    0.35551   0.90109   0.15430   1.000
    F413    F    0.85552   0.90109   0.15430   1.000
    F414    F    0.12987   0.22960   0.30165   1.000
    F415    F    0.62988   0.22960   0.30165   1.000
    F416    F    0.09981   0.18435   0.18716   1.000
    F417    F    0.59982   0.18435   0.18716   1.000
    F418    F    0.02218   0.15426   0.25318   1.000
    F419    F    0.52219   0.15426   0.25318   1.000
    F420    F    0.29655   0.69831   0.92791   1.000
    F421    F    0.79656   0.69831   0.92791   1.000
    F422    F    0.26648   0.81278   0.99715   1.000
    F423    F    0.76649   0.81278   0.99715   1.000
    F424    F    0.18884   0.74679   0.90107   1.000
    F425    F    0.68885   0.74679   0.90107   1.000
    F426    F    0.46323   0.07208   0.77035   1.000
    F427    F    0.96324   0.07208   0.77035   1.000
    F428    F    0.43315   0.00282   0.81559   1.000
    F429    F    0.93316   0.00282   0.81559   1.000
    F430    F    0.35551   0.09891   0.84568   1.000
    F431    F    0.85552   0.09891   0.84568   1.000
loop_
    _geom_bond_atom_site_label_1
    _geom_bond_atom_site_label_2
    _geom_bond_distance
    _geom_bond_site_symmetry_2
    _ccdc_geom_bond_type
    F387   C187      1.35938      .   S
    F386   C186      1.35938      .   S
    F405   C235      1.35980      .   S
    F404   C234      1.35980      .   S
    C187   F385      1.36275      .   S
    C187   F389      1.35524      .   S
    C187   C309      1.56633      .   S
    C186   F384      1.36276      .   S
    C186   F388      1.35523      .   S
    C186   C308      1.56633      .   S
    C234   F402      1.36320      .   S
    C234   F406      1.35484      .   S
    C234   C302      1.56663      .   S
    C235   F403      1.36321      .   S
    C235   F407      1.35483      .   S
    C235   C303      1.56662      .   S
    C185   C183      1.40153      .   S
    C185   C177      1.40605      .   S
    C185   C309      1.54550      .   S
    C232   C230      1.40068      .   S
    C232   C224      1.40561      .   S
    C232   C302      1.54579      .   S
    C233   C231      1.40068      .   S
    C233   C225      1.40561      .   S
    C233   C303      1.54579      .   S
    C184   C182      1.40142      .   S
    C184   C176      1.40440      .   S
    C184   C308      1.54603      .   S
    H51    C183      1.08530      .   S
    H50    C182      1.08530      .   S
    H75    C231      1.08538      .   S
    H74    C230      1.08539  1_655   S
    H70    C224      1.08879      .   S
    H71    C225      1.08879      .   S
    H46    C176      1.08857      .   S
    H47    C177      1.08876      .   S
    C230   C223      1.39269  1_455   S
    C231   C222      1.39283      .   S
    C183   C175      1.39232      .   S
    C182   C174      1.39212      .   S
    C176   C178      1.39245      .   S
    C225   C227      1.39140      .   S
    C224   C226      1.39140      .   S
    C177   C179      1.39151      .   S
    C174   H44       1.08828      .   S
    C174   C180      1.40045      .   S
    C175   H45       1.08824      .   S
    C175   C181      1.40025      .   S
    C222   H68       1.08829      .   S
    C222   C229      1.40032      .   S
    C223   H69       1.08828      .   S
    C223   C228      1.40016  1_655   S
    C226   H72       1.08831      .   S
    C226   C228      1.40216      .   S
    C227   H73       1.08831      .   S
    C227   C229      1.40216      .   S
    C178   H48       1.08878      .   S
    C178   C180      1.40221      .   S
    C179   H49       1.08832      .   S
    C179   C181      1.40209      .   S
    F395   C203      1.35489      .   S
    F394   C202      1.35489      .   S
    F412   C250      1.35483      .   S
    F413   C251      1.35483      .   S
    C229   C220      1.49440      .   S
    C228   C221      1.49426  1_455   S
    C181   C173      1.49462      .   S
    C180   C172      1.49441      .   S
    F393   C203      1.35977      .   S
    F411   C251      1.35982      .   S
    F410   C250      1.35982      .   S
    F392   C202      1.35979      .   S
    F417   C267      1.35969      .   S
    F416   C266      1.35969      .   S
    F362   C122      1.35984      .   S
    F363   C123      1.35984      .   S
    C202   F390      1.36322      .   S
    C202   C311      1.56617      .   S
    C203   F391      1.36322      .   S
    C203   C310      1.56606  1_655   S
    C250   F408      1.36322      .   S
    C250   C300      1.56653  1_565   S
    C251   F409      1.36324      .   S
    C251   C301      1.56653  1_565   S
    C221   O340      1.28144  1_655   S
    C221   O343      1.27167      .   S
    C220   O341      1.28162      .   S
    C220   O342      1.27167      .   S
    C172   O328      1.28164      .   S
    C172   O330      1.27169      .   S
    C173   O329      1.28156      .   S
    C173   O331      1.27161      .   S
    H58    C198      1.08519      .   S
    H59    C199      1.08519      .   S
    H82    C246      1.08515      .   S
    H83    C247      1.08514      .   S
    O341   Zn7       1.96463      .   S
    O340   Zn6       1.96464  1_455   S
    O328   Zn8       1.96464      .   S
    O329   Zn9       1.96462      .   S
    O331   Zn6       1.98014      .   S
    O330   Zn7       1.98012      .   S
    O342   Zn8       1.98015      .   S
    O343   Zn9       1.98013      .   S
    H52    C190      1.08829      .   S
    H53    C191      1.08827      .   S
    H77    C239      1.08826      .   S
    H76    C238      1.08826      .   S
    F364   C122      1.35491      .   S
    F419   C267      1.35492      .   S
    F365   C123      1.35491      .   S
    F418   C266      1.35488      .   S
    C267   C311      1.56631      .   S
    C267   F415      1.36335      .   S
    C266   C310      1.56622      .   S
    C266   F414      1.36333      .   S
    C122   C300      1.56653      .   S
    C122   F360      1.36308      .   S
    C123   C301      1.56653      .   S
    C123   F361      1.36307      .   S
    C199   C191      1.39227      .   S
    C199   C201      1.40137      .   S
    C198   C190      1.39224      .   S
    C198   C200      1.40138      .   S
    C246   C238      1.39227      .   S
    C246   C248      1.40106      .   S
    C247   C239      1.39227      .   S
    C247   C249      1.40144      .   S
    C191   C197      1.40028      .   S
    C190   C196      1.40021      .   S
    C239   C245      1.40036      .   S
    C238   C244      1.40036      .   S
    C311   C201      1.54575      .   S
    C311   C264      1.54576      .   S
    C310   C200      1.54569      .   S
    C310   C265      1.54564  1_455   S
    C301   C249      1.54612  1_545   S
    C301   C121      1.54577      .   S
    C300   C248      1.54502  1_545   S
    C300   C120      1.54576      .   S
    C201   C193      1.40552      .   S
    C200   C192      1.40553      .   S
    C248   C240      1.40698      .   S
    C249   C241      1.40547      .   S
    O346   Zn6       1.98684  1_455   S
    O346   C236      1.27699      .   S
    O347   Zn7       1.97982      .   S
    O347   C237      1.27160      .   S
    O335   Zn9       1.97972      .   S
    O335   C189      1.27165      .   S
    O334   Zn8       1.97973      .   S
    O334   C188      1.27164      .   S
    H18    C118      1.08521      .   S
    H19    C119      1.07882  1_455   S
    H90    C262      1.08528      .   S
    H91    C263      1.08528      .   S
    Zn6    O325      1.96462      .   S
    Zn7    O324      1.96473      .   S
    Zn9    O337      1.96454      .   S
    Zn8    O336      1.96454      .   S
    C196   C188      1.49401      .   S
    C196   C194      1.40250      .   S
    C197   C189      1.49435      .   S
    C197   C195      1.40207      .   S
    C245   C237      1.49447      .   S
    C245   C243      1.40209      .   S
    C244   C236      1.49447      .   S
    C244   C242      1.40210      .   S
    C236   O344      1.28048      .   S
    C237   O345      1.28169      .   S
    C188   O332      1.28159      .   S
    C189   O333      1.28159      .   S
    C193   C195      1.39143      .   S
    C193   H54       1.08874      .   S
    C192   C194      1.39141      .   S
    C192   H55       1.08842  1_455   S
    C240   C242      1.39154      .   S
    C240   H78       1.08879      .   S
    C241   C243      1.39154      .   S
    C241   H79       1.08877      .   S
    C195   H57       1.08830      .   S
    C194   H56       1.08830      .   S
    C242   H80       1.08822      .   S
    C243   H81       1.08821      .   S
    C118   C120      1.40144      .   S
    C118   C111      1.39223      .   S
    C119   C121      1.40143      .   S
    C119   C110      1.39208  1_655   S
    C262   C264      1.40141      .   S
    C262   C254      1.39218      .   S
    C263   C265      1.40142      .   S
    C263   C255      1.39218      .   S
    C265   C257      1.40555      .   S
    C264   C256      1.40554      .   S
    C121   C113      1.40559      .   S
    C120   C112      1.40558      .   S
    O344   Zn10      1.96564      .   S
    O345   Zn11      1.96457      .   S
    O332   Zn10      1.96441      .   S
    O333   Zn11      1.96441      .   S
    Zn10   O338      1.97994      .   S
    Zn10   O326      1.97996      .   S
    Zn11   O339      1.97994      .   S
    Zn11   O327      1.97995      .   S
    O337   C205      1.28160      .   S
    O324   C157      1.28162      .   S
    O325   C156      1.28144  1_655   S
    O336   C204      1.28160      .   S
    H13    C111      1.08828      .   S
    H12    C110      1.08827      .   S
    H85    C255      1.08830      .   S
    H84    C254      1.08830      .   S
    C110   C117      1.40019  1_455   S
    C111   C116      1.40035      .   S
    C255   C261      1.40029      .   S
    C254   C260      1.40028      .   S
    C257   H86       1.08844  1_655   S
    C257   C259      1.39145      .   S
    C256   H87       1.08877      .   S
    C256   C258      1.38992      .   S
    C112   H14       1.08876      .   S
    C112   C114      1.39147      .   S
    C113   H15       1.08876      .   S
    C113   C115      1.39146      .   S
    C157   O327      1.27167      .   S
    C157   C164      1.49438      .   S
    C156   O326      1.27167      .   S
    C156   C165      1.49422  1_455   S
    C205   O339      1.27167      .   S
    C205   C213      1.49437      .   S
    C204   O338      1.27167      .   S
    C204   C212      1.49437      .   S
    C117   C115      1.40215      .   S
    C117   C108      1.49340  1_655   S
    C116   C114      1.40215      .   S
    C116   C109      1.49442      .   S
    C261   C259      1.40207      .   S
    C261   C253      1.49429      .   S
    C260   C258      1.40239      .   S
    C260   C252      1.49430      .   S
    C258   H88       1.08949      .   S
    C259   H89       1.08826      .   S
    C114   H16       1.08824      .   S
    C115   H17       1.08824      .   S
    H40    C162      1.08832      .   S
    H41    C163      1.08832      .   S
    H64    C210      1.08824      .   S
    H65    C211      1.08823      .   S
    C163   C165      1.40210      .   S
    C163   C161      1.39140      .   S
    C162   C164      1.40210      .   S
    C162   C160      1.39140      .   S
    C210   C212      1.40212      .   S
    C210   C208      1.39140      .   S
    C211   C213      1.40212      .   S
    C211   C209      1.39139      .   S
    C164   C159      1.40036      .   S
    C165   C158      1.40020  1_655   S
    C212   C206      1.39905      .   S
    C213   C207      1.39905      .   S
    O314   C108      1.27122      .   S
    O314   Zn4       1.98020      .   S
    O315   C109      1.27168      .   S
    O315   Zn5       1.98019      .   S
    O351   C253      1.27165      .   S
    O351   Zn5       1.97964      .   S
    O350   C252      1.27164      .   S
    O350   Zn4       1.97963      .   S
    C108   O313      1.28283  1_455   S
    C109   O312      1.28106      .   S
    C252   O348      1.28155      .   S
    C253   O349      1.28154      .   S
    H38    C160      1.08876      .   S
    H39    C161      1.08876      .   S
    H62    C209      1.08844  1_455   S
    H63    C208      1.08876      .   S
    C160   C168      1.40556      .   S
    C161   C169      1.40557      .   S
    C208   C216      1.40558      .   S
    C209   C217      1.40558      .   S
    C206   H60       1.08794      .   S
    C206   C214      1.39385      .   S
    C207   H61       1.08794      .   S
    C207   C215      1.39385      .   S
    C158   H36       1.08830      .   S
    C158   C167      1.39212  1_455   S
    C159   H37       1.08830      .   S
    C159   C166      1.39227      .   S
    O312   Zn1       1.96515      .   S
    O313   Zn0       1.96442  1_655   S
    O349   Zn3       1.96444      .   S
    O348   Zn2       1.96443      .   S
    Zn4    O320      1.96445      .   S
    Zn4    O356      1.96457      .   S
    Zn5    O321      1.96447      .   S
    Zn5    O357      1.96461      .   S
    H33    C147      1.08831      .   S
    H32    C146      1.08830      .   S
    H104   C290      1.08839      .   S
    H105   C291      1.08771      .   S
    O320   C140      1.28160      .   S
    O321   C141      1.28160      .   S
    O356   C284      1.28160      .   S
    O357   C285      1.28119      .   S
    H102   C288      1.08877      .   S
    H103   C289      1.08877      .   S
    H30    C145      1.08855      .   S
    H31    C144      1.08839  1_655   S
    C168   C166      1.40143      .   S
    C168   C306      1.54588  1_565   S
    C169   C167      1.40143      .   S
    C169   C307      1.54588  1_565   S
    C216   C214      1.40140      .   S
    C216   C305      1.54588      .   S
    C217   C215      1.40141      .   S
    C217   C304      1.54570  1_655   S
    C166   H42       1.08528      .   S
    C167   H43       1.07899  1_655   S
    C214   H66       1.08523      .   S
    C215   H67       1.08523      .   S
    C291   C289      1.39190      .   S
    C291   C293      1.40223      .   S
    C147   C145      1.39157      .   S
    C147   C149      1.40206      .   S
    C146   C144      1.39146      .   S
    C146   C148      1.40206      .   S
    C290   C288      1.39139      .   S
    C290   C292      1.40208      .   S
    C145   C153      1.40557      .   S
    C288   C296      1.40562      .   S
    C289   C297      1.40565      .   S
    C144   C152      1.40555      .   S
    C141   C149      1.49442      .   S
    C141   O323      1.27167      .   S
    C140   C148      1.49442      .   S
    C140   O322      1.27168      .   S
    C285   C293      1.49477      .   S
    C285   O359      1.27134      .   S
    C284   C292      1.49453      .   S
    C284   O358      1.27171      .   S
    C148   C142      1.40031      .   S
    C149   C143      1.40031      .   S
    C292   C286      1.40039      .   S
    C293   C287      1.40041      .   S
    F397   C219      1.36313      .   S
    F396   C218      1.36312      .   S
    F379   C171      1.36319      .   S
    F378   C170      1.36319      .   S
    Zn1    O359      1.97951      .   S
    Zn1    O318      1.98007      .   S
    Zn1    O353      1.96483      .   S
    Zn0    O358      1.98021      .   S
    Zn0    O319      1.97978  1_455   S
    Zn0    O352      1.96485      .   S
    Zn3    O323      1.97983      .   S
    Zn3    O355      1.98015      .   S
    Zn3    O317      1.96369      .   S
    Zn2    O322      1.97984      .   S
    Zn2    O354      1.98017      .   S
    Zn2    O316      1.96446      .   S
    C296   C306      1.54594      .   S
    C296   C294      1.40140      .   S
    C297   C307      1.54592      .   S
    C297   C295      1.40139      .   S
    C152   C304      1.54577      .   S
    C152   C150      1.40136      .   S
    C153   C305      1.54576      .   S
    C153   C151      1.40136      .   S
    C306   C170      1.56669  1_545   S
    C306   C298      1.56639      .   S
    C307   C171      1.56669  1_545   S
    C307   C299      1.56640      .   S
    C305   C219      1.56628      .   S
    C305   C154      1.56625      .   S
    C304   C218      1.56629      .   S
    C304   C155      1.56602  1_455   S
    C143   C151      1.39226      .   S
    C143   H29       1.08828      .   S
    C142   C150      1.39228      .   S
    C142   H28       1.08828      .   S
    C286   C294      1.39231      .   S
    C286   H100      1.08786      .   S
    C287   C295      1.39229      .   S
    C287   H101      1.08787      .   S
    C150   H34       1.08521      .   S
    C151   H35       1.08521      .   S
    C295   H107      1.08511      .   S
    C294   H106      1.08513      .   S
    C170   F382      1.35494      .   S
    C170   F380      1.35980      .   S
    C171   F383      1.35408      .   S
    C171   F381      1.35980      .   S
    C218   F400      1.35491      .   S
    C218   F398      1.35827      .   S
    C219   F401      1.35491      .   S
    C219   F399      1.35827      .   S
    O319   C125      1.27163      .   S
    O318   C124      1.27159      .   S
    O354   C268      1.27173      .   S
    O355   C269      1.27167      .   S
    O317   C125      1.28219      .   S
    O353   C268      1.28158      .   S
    O352   C269      1.28147  1_455   S
    O316   C124      1.28143      .   S
    F426   C298      1.36320      .   S
    F427   C299      1.36319      .   S
    F372   C154      1.36319      .   S
    F373   C155      1.36321      .   S
    C124   C132      1.49470      .   S
    C125   C133      1.49453      .   S
    C269   C276      1.49438  1_655   S
    C268   C277      1.49452      .   S
    C299   F429      1.35984      .   S
    C299   F431      1.35478      .   S
    C298   F428      1.35985      .   S
    C298   F430      1.35478      .   S
    C154   F374      1.35978      .   S
    C154   F376      1.35482      .   S
    C155   F375      1.35978      .   S
    C155   F377      1.35482      .   S
    C132   C130      1.40209      .   S
    C132   C126      1.40030      .   S
    C133   C131      1.40207      .   S
    C133   C127      1.40026      .   S
    C276   C274      1.40215      .   S
    C276   C271      1.40015  1_455   S
    C277   C275      1.40211      .   S
    C277   C270      1.40033      .   S
    H24    C130      1.08826      .   S
    H25    C131      1.08828      .   S
    H97    C275      1.08828      .   S
    H96    C274      1.08830      .   S
    H20    C126      1.08859      .   S
    H21    C127      1.08827      .   S
    H93    C271      1.08876      .   S
    H92    C270      1.08825      .   S
    C131   C129      1.39154      .   S
    C130   C128      1.39154      .   S
    C275   C273      1.39122      .   S
    C274   C272      1.39143      .   S
    C126   C134      1.39235      .   S
    C127   C135      1.39237      .   S
    C271   C278      1.39196  1_655   S
    C270   C279      1.39230      .   S
    F425   C283      1.35488      .   S
    F424   C282      1.35488      .   S
    F370   C138      1.35482      .   S
    F371   C139      1.35481      .   S
    C273   H95       1.08340      .   S
    C273   C281      1.40554      .   S
    C129   H23       1.08873      .   S
    C129   C137      1.40558      .   S
    C128   H22       1.08875      .   S
    C128   C136      1.40562      .   S
    C272   H94       1.08876      .   S
    C272   C280      1.40559      .   S
    C134   H26       1.08411      .   S
    C134   C136      1.40140      .   S
    C135   H27       1.08514      .   S
    C135   C137      1.40139      .   S
    C278   H98       1.08515  1_455   S
    C278   C280      1.40164      .   S
    C279   H99       1.08521      .   S
    C279   C281      1.40140      .   S
    F420   C282      1.36313      .   S
    F421   C283      1.36313      .   S
    F366   C138      1.36324      .   S
    F367   C139      1.36323      .   S
    C136   C302      1.54613  1_556   S
    C137   C303      1.54615  1_556   S
    C280   C308      1.54584  1_556   S
    C281   C309      1.54583  1_556   S
    C282   F422      1.35987      .   S
    C282   C308      1.56685  1_556   S
    C283   F423      1.35985      .   S
    C283   C309      1.56685  1_556   S
    C138   F368      1.35991      .   S
    C138   C302      1.56643  1_556   S
    C139   F369      1.35990      .   S
    C139   C303      1.56645  1_556   S
