# CIF file generated by openbabel 2.4.90, see http://openbabel.sf.net
data_I
_chemical_name_common ''
_cell_length_a 12.19
_cell_length_b 12.328
_cell_length_c 14.117
_cell_angle_alpha 89.884
_cell_angle_beta 68.561
_cell_angle_gamma 89.961
_space_group_name_H-M_alt 'P 1'
_space_group_name_Hall 'P 1'
loop_
    _symmetry_equiv_pos_as_xyz
    x,y,z
loop_
    _atom_site_label
    _atom_site_type_symbol
    _atom_site_fract_x
    _atom_site_fract_y
    _atom_site_fract_z
    _atom_site_occupancy
    Lv0     Lv   0.07850   0.81517   0.57508   1.000
    Lv1     Lv   0.77156   0.73890   0.74307   1.000
    Lv2     Lv   0.07886   0.68661   0.07014   1.000
    Lv3     Lv   0.77161   0.76095   0.24236   1.000
    Lv4     Lv   0.22840   0.23901   0.75762   1.000
    Lv5     Lv   0.92314   0.31335   0.92659   1.000
    Lv6     Lv   0.22846   0.26105   0.25690   1.000
    Lv7     Lv   0.92353   0.18477   0.42490   1.000
