# CIF file generated by openbabel 2.4.90, see http://openbabel.sf.net
data_I
_chemical_name_common ''
_cell_length_a 12.19
_cell_length_b 12.328
_cell_length_c 14.117
_cell_angle_alpha 89.884
_cell_angle_beta 68.561
_cell_angle_gamma 89.961
_space_group_name_H-M_alt 'P 1'
_space_group_name_Hall 'P 1'
loop_
    _symmetry_equiv_pos_as_xyz
    x,y,z
loop_
    _atom_site_label
    _atom_site_type_symbol
    _atom_site_fract_x
    _atom_site_fract_y
    _atom_site_fract_z
    _atom_site_occupancy
    La0     La   0.57473   0.08010   0.60641   1.000
    La1     La   0.57532   0.42016   0.10657   1.000
    La2     La   0.42528   0.91984   0.39358   1.000
    H3      H    0.35227   0.77087   0.73427   1.000
    H4      H    0.64718   0.26779   0.76813   1.000
    H5      H    0.64773   0.22910   0.26574   1.000
    H6      H    0.35283   0.73215   0.23187   1.000
    C7      C    0.53919   0.80880   0.73052   1.000
    C8      C    0.70451   0.58221   0.91964   1.000
    C9      C    0.16339   0.90703   0.35890   1.000
    C10     C    0.29897   0.79261   0.61969   1.000
    La11    La   0.42469   0.57978   0.89341   1.000
    C12     C    0.46074   0.30795   0.77055   1.000
    C13     C    0.29538   0.08538   0.57927   1.000
    C14     C    0.83687   0.40695   0.14163   1.000
    C15     C    0.70021   0.28889   0.88299   1.000
    C16     C    0.46081   0.19113   0.26946   1.000
    C17     C    0.29548   0.41777   0.08037   1.000
    C18     C    0.83661   0.09292   0.64110   1.000
    C19     C    0.70106   0.20732   0.38029   1.000
    C20     C    0.53928   0.69201   0.22943   1.000
    C21     C    0.70464   0.91456   0.42072   1.000
    C22     C    0.16314   0.59301   0.85835   1.000
    C23     C    0.29981   0.71105   0.11700   1.000
    O24     O    0.44891   0.74680   0.77123   1.000
    O25     O    0.53654   0.89744   0.68728   1.000
    O26     O    0.60640   0.52873   0.94315   1.000
    O27     O    0.77258   0.57444   0.96703   1.000
    O28     O    0.27358   0.93538   0.32133   1.000
    O29     O    0.08956   0.91568   0.31784   1.000
    O30     O    0.39887   0.79576   0.55124   1.000
    O31     O    0.27664   0.78189   0.71681   1.000
    O32     O    0.55102   0.24615   0.72932   1.000
    O33     O    0.46329   0.39594   0.81451   1.000
    O34     O    0.39392   0.03230   0.55468   1.000
    O35     O    0.22659   0.07848   0.53261   1.000
    O36     O    0.72676   0.43567   0.17903   1.000
    O37     O    0.91111   0.41643   0.18214   1.000
    O38     O    0.60038   0.29223   0.95149   1.000
    O39     O    0.72255   0.27771   0.78594   1.000
    O40     O    0.55107   0.25317   0.22880   1.000
    O41     O    0.46348   0.10249   0.31270   1.000
    O42     O    0.39363   0.47121   0.05683   1.000
    O43     O    0.22743   0.42551   0.03296   1.000
    O44     O    0.72640   0.06459   0.67868   1.000
    O45     O    0.91044   0.08427   0.68216   1.000
    O46     O    0.60116   0.20420   0.44875   1.000
    O47     O    0.72338   0.21808   0.28317   1.000
    O48     O    0.44899   0.75379   0.27067   1.000
    O49     O    0.53674   0.60400   0.18548   1.000
    O50     O    0.60610   0.96764   0.44528   1.000
    O51     O    0.77343   0.92150   0.46738   1.000
    O52     O    0.27326   0.56430   0.82092   1.000
    O53     O    0.08891   0.58357   0.81783   1.000
    O54     O    0.39964   0.70771   0.00000   1.000
    O55     O    0.27746   0.72225   0.21405   1.000
    Ts56    Ts   0.50468   0.11738   0.63392   1.000
    Ts57    Ts   0.64473   0.10592   0.57145   1.000
    Ts58    Ts   0.64499   0.39341   0.07221   1.000
    Ts59    Ts   0.50506   0.38309   0.13402   1.000
    Ts60    Ts   0.35528   0.89400   0.42852   1.000
    Ts61    Ts   0.49534   0.88256   0.36607   1.000
    Og62    Og   0.57663   0.79536   0.73355   1.000
    Og63    Og   0.71310   0.60763   0.89008   1.000
    Og64    Og   0.15099   0.89115   0.39454   1.000
    Og65    Og   0.26319   0.79672   0.61087   1.000
    Ts66    Ts   0.49496   0.61684   0.86595   1.000
    Ts67    Ts   0.35502   0.60653   0.92777   1.000
    Og68    Og   0.42329   0.29470   0.76743   1.000
    Og69    Og   0.28684   0.11026   0.60912   1.000
    Og70    Og   0.84914   0.39069   0.10623   1.000
    Og71    Og   0.73606   0.29319   0.89169   1.000
    Og72    Og   0.42338   0.20456   0.26642   1.000
    Og73    Og   0.28690   0.39235   0.10992   1.000
    Og74    Og   0.84902   0.10878   0.60545   1.000
    Og75    Og   0.73684   0.20322   0.38911   1.000
    Og76    Og   0.57673   0.70526   0.23254   1.000
    Og77    Og   0.71317   0.88967   0.39087   1.000
    Og78    Og   0.15087   0.60928   0.89375   1.000
    Og79    Og   0.26396   0.70675   0.10830   1.000
loop_
    _geom_bond_atom_site_label_1
    _geom_bond_atom_site_label_2
    _geom_bond_distance
    _geom_bond_site_symmetry_2
    _ccdc_geom_bond_type
    O54    C23       1.65581      .   S
    O54    La11      2.12551  1_554   S
    O43    C17       1.24522      .   S
    O43    La11      3.13186  1_554   S
    O42    C17       1.29823      .   S
    O42    La11      2.57034  1_554   S
    La1    O36       2.42339      .   S
    La1    O49       2.49484      .   S
    La1    O40       2.62989      .   S
    La1    O26       2.57033  1_554   S
    La1    O38       2.62633  1_554   S
    La1    O27       3.13176  1_554   S
    C23    O55       1.30307      .   S
    C14    O36       1.29918      .   S
    C14    O37       1.24029      .   S
    O49    C20       1.25695      .   S
    O55    H6        1.04469      .   S
    O40    C16       1.28946      .   S
    C20    O48       1.28945      .   S
    H5     O47       1.04650      .   S
    C16    O41       1.25681      .   S
    O48    La2       2.63274      .   S
    O47    C19       1.30298      .   S
    O41    La2       2.48863  1_545   S
    O29    C9        1.24032      .   S
    O28    C9        1.29885      .   S
    O28    La2       2.42359      .   S
    C19    O46       1.24825      .   S
    La2    O30       2.61916      .   S
    La2    O34       2.57238  1_565   S
    C21    O50       1.29872      .   S
    C21    O51       1.24436      .   S
    O50    La0       2.57260  1_565   S
    O46    La0       2.61931      .   S
    O35    C13       1.24432      .   S
    O30    C10       1.24823      .   S
    O34    C13       1.29875      .   S
    La0    O44       2.42356      .   S
    La0    O25       2.48863  1_545   S
    La0    O32       2.63284      .   S
    C10    O31       1.30298      .   S
    C18    O44       1.29890      .   S
    C18    O45       1.24026      .   S
    O25    C7        1.25680      .   S
    O31    H3        1.04648      .   S
    O32    C12       1.28943      .   S
    C7     O24       1.28947      .   S
    H4     O39       1.04470      .   S
    C12    O33       1.25694      .   S
    O24    La11      2.62972      .   S
    O39    C15       1.30305      .   S
    O33    La11      2.49471      .   S
    O53    C22       1.24029      .   S
    O52    C22       1.29921      .   S
    O52    La11      2.42347      .   S
    C15    O38       1.24806      .   S
    C8     O26       1.29826      .   S
    C8     O27       1.24523      .   S
    O26    La11      2.63216      .   S
    O34    La0       2.63027      .   S
    O35    La2       3.17446  1_545   S
    O42    La1       2.63206      .   S
    O50    La2       2.63024      .   S
    O51    La0       3.17425  1_565   S
    La0    Ts56      0.92142      .   S
    La0    Ts57      0.87458      .   S
    La1    Ts58      0.87436      .   S
    La1    Ts59      0.92181      .   S
    La2    Ts60      0.87459      .   S
    La2    Ts61      0.92141      .   S
    C7     Og62      0.50171      .   S
    C8     Og63      0.50086      .   S
    C9     Og64      0.50825      .   S
    C10    Og65      0.49794      .   S
    La11   Ts66      0.92180      .   S
    La11   Ts67      0.87436      .   S
    C12    Og68      0.50176      .   S
    C13    Og69      0.50098      .   S
    C14    Og70      0.50798      .   S
    C15    Og71      0.49817      .   S
    C16    Og72      0.50171      .   S
    C17    Og73      0.50085      .   S
    C18    Og74      0.50827      .   S
    C19    Og75      0.49791      .   S
    C20    Og76      0.50174      .   S
    C21    Og77      0.50098      .   S
    C22    Og78      0.50799      .   S
    C23    Og79      0.49818      .   S
