# CIF file generated by openbabel 2.4.90, see http://openbabel.sf.net
data_I
_chemical_name_common ''
_cell_length_a 12.19
_cell_length_b 12.328
_cell_length_c 14.117
_cell_angle_alpha 89.884
_cell_angle_beta 68.561
_cell_angle_gamma 89.961
_space_group_name_H-M_alt 'P 1'
_space_group_name_Hall 'P 1'
loop_
    _symmetry_equiv_pos_as_xyz
    x,y,z
loop_
    _atom_site_label
    _atom_site_type_symbol
    _atom_site_fract_x
    _atom_site_fract_y
    _atom_site_fract_z
    _atom_site_occupancy
    Zr0     Zr   0.42469   0.57978   0.89341   1.000
    Zr1     Zr   0.57473   0.08010   0.60641   1.000
    Zr2     Zr   0.57532   0.42016   0.10657   1.000
    Zr3     Zr   0.42528   0.91984   0.39358   1.000
    N4      N    0.07850   0.81517   0.57508   1.000
    O5      O    0.19939   0.84812   0.51054   1.000
    N6      N    0.77156   0.73890   0.74307   1.000
    O7      O    0.65082   0.68714   0.79765   1.000
    O8      O    0.88825   0.76845   0.68026   1.000
    N9      N    0.07886   0.68661   0.07014   1.000
    O10     O    0.19952   0.65326   0.00755   1.000
    N11     N    0.77161   0.76095   0.24236   1.000
    O12     O    0.65099   0.81244   0.29734   1.000
    O13     O    0.88839   0.73215   0.17833   1.000
    N14     N    0.22840   0.23901   0.75762   1.000
    O15     O    0.34903   0.18751   0.70265   1.000
    N16     N    0.92314   0.31335   0.92659   1.000
    O17     O    0.80148   0.34669   0.99081   1.000
    O18     O    0.03778   0.28639   0.86308   1.000
    N19     N    0.22846   0.26105   0.25690   1.000
    O20     O    0.34919   0.31280   0.20232   1.000
    N21     N    0.92353   0.18477   0.42490   1.000
    O22     O    0.80163   0.15180   0.48944   1.000
    O23     O    0.03805   0.21243   0.36172   1.000
    C24     C    0.82449   0.08059   0.66731   1.000
    O25     O    0.73753   0.07647   0.65493   1.000
    O26     O    0.85693   0.11567   0.58679   1.000
    C27     C    0.33243   0.71829   0.14073   1.000
    O28     O    0.37230   0.68102   0.04372   1.000
    O29     O    0.24744   0.70695   0.11388   1.000
    C30     C    0.33169   0.78528   0.65550   1.000
    O31     O    0.37188   0.82154   0.56396   1.000
    O32     O    0.24679   0.79613   0.62314   1.000
    C33     C    0.69450   0.56179   0.94327   1.000
    O34     O    0.64268   0.51812   0.98407   1.000
    O35     O    0.60502   0.55802   0.93077   1.000
    O36     O    0.68422   0.52955   0.99004   1.000
    O37     O    0.71949   0.62070   0.87623   1.000
    C38     C    0.17551   0.91937   0.33269   1.000
    O39     O    0.14358   0.88428   0.41320   1.000
    O40     O    0.26247   0.92349   0.34507   1.000
    C41     C    0.49168   0.31668   0.77146   1.000
    O42     O    0.52728   0.23990   0.71966   1.000
    O43     O    0.46784   0.40227   0.81271   1.000
    O44     O    0.40408   0.29011   0.76660   1.000
    C45     C    0.17510   0.58029   0.83237   1.000
    O46     O    0.14345   0.61615   0.91158   1.000
    O47     O    0.26204   0.57617   0.84477   1.000
    C48     C    0.50834   0.68327   0.22852   1.000
    O49     O    0.53218   0.59768   0.18727   1.000
    O50     O    0.47274   0.76004   0.28032   1.000
    O51     O    0.59593   0.70984   0.23337   1.000
    C52     C    0.82491   0.41968   0.16760   1.000
    O53     O    0.73798   0.42380   0.15520   1.000
    O54     O    0.85706   0.38382   0.08758   1.000
    C55     C    0.66833   0.21468   0.34449   1.000
    O56     O    0.75373   0.20382   0.37685   1.000
    O57     O    0.62814   0.17841   0.43603   1.000
    C58     C    0.66758   0.28165   0.84714   1.000
    O59     O    0.62772   0.31893   0.93808   1.000
    O60     O    0.75307   0.29300   0.87923   1.000
    C61     C    0.49179   0.18226   0.27032   1.000
    O62     O    0.46809   0.09671   0.31173   1.000
    O63     O    0.40417   0.20921   0.26561   1.000
    O64     O    0.52749   0.25947   0.21900   1.000
    C65     C    0.69472   0.93457   0.44446   1.000
    O66     O    0.68440   0.96768   0.49068   1.000
    O67     O    0.64257   0.97922   0.48515   1.000
    O68     O    0.60521   0.93915   0.43195   1.000
    O69     O    0.71962   0.87683   0.37681   1.000
    C70     C    0.30530   0.06539   0.55552   1.000
    O71     O    0.35745   0.02073   0.51482   1.000
    O72     O    0.39481   0.06079   0.56803   1.000
    O73     O    0.31562   0.03227   0.50931   1.000
    O74     O    0.28039   0.12312   0.62318   1.000
    C75     C    0.30552   0.43816   0.05672   1.000
    O76     O    0.28052   0.37925   0.12376   1.000
    O77     O    0.31579   0.47040   0.00995   1.000
    O78     O    0.35734   0.48183   0.01592   1.000
    O79     O    0.39500   0.44192   0.06921   1.000
    C80     C    0.50821   0.81768   0.72968   1.000
    O81     O    0.53192   0.90322   0.68826   1.000
    O82     O    0.47251   0.74048   0.78100   1.000
    O83     O    0.59583   0.79073   0.73437   1.000
loop_
    _geom_bond_atom_site_label_1
    _geom_bond_atom_site_label_2
    _geom_bond_distance
    _geom_bond_site_symmetry_2
    _ccdc_geom_bond_type
    N4     O5        1.47807      .   S
    Zr3    O5        2.78634      .   S
    N6     O7        1.52880      .   S
    Zr0    O7        2.90707      .   S
    N6     O8        1.42119      .   S
    N4     O8        2.32294  1_455   S
    N9     O10       1.47101      .   S
    Zr0    O10       2.77856  1_556   S
    N11    O12       1.52770      .   S
    Zr3    O12       2.90495      .   S
    N11    O13       1.42457      .   S
    N9     O13       2.33416  1_455   S
    N14    O15       1.52770      .   S
    Zr1    O15       2.90497      .   S
    N16    O17       1.48589      .   S
    Zr2    O17       2.79298  1_554   S
    N16    O18       1.39717  1_655   S
    N14    O18       2.33020      .   S
    N19    O20       1.52880      .   S
    Zr2    O20       2.90707      .   S
    N21    O22       1.48759      .   S
    Zr1    O22       2.79587      .   S
    N21    O23       1.39638  1_655   S
    N19    O23       2.32888      .   S
    C24    O25       1.13684      .   S
    Zr1    O25       2.32439      .   S
    C24    O26       1.14244      .   S
    N21    O26       2.29010      .   S
    C27    O28       1.35597      .   S
    Zr0    O28       2.34245  1_556   S
    C27    O29       1.23451      .   S
    N9     O29       2.36567      .   S
    C30    O31       1.28263      .   S
    Zr3    O31       2.55380      .   S
    C30    O32       1.28169      .   S
    N4     O32       2.39580      .   S
    C33    O34       0.86821      .   S
    Zr2    O34       2.01943  1_554   S
    C33    O35       1.16779      .   S
    Zr0    O35       2.45531      .   S
    C33    O36       0.74033      .   S
    Zr2    O36       2.16424  1_554   S
    C33    O37       1.14140      .   S
    N6     O37       2.27543      .   S
    C38    O39       1.14253      .   S
    N4     O39       2.29027      .   S
    C38    O40       1.13685      .   S
    Zr3    O40       2.32442      .   S
    C41    O42       1.17864      .   S
    Zr1    O42       2.47126      .   S
    C41    O43       1.18965      .   S
    Zr0    O43       2.43589      .   S
    C41    O44       1.14293      .   S
    N14    O44       2.28035      .   S
    C45    O46       1.13186      .   S
    N9     O46       2.25902  1_554   S
    C45    O47       1.13658      .   S
    Zr0    O47       2.32386      .   S
    C48    O49       1.18969      .   S
    Zr2    O49       2.43600      .   S
    C48    O50       1.17861      .   S
    Zr3    O50       2.47117      .   S
    C48    O51       1.14290      .   S
    N11    O51       2.28029      .   S
    C52    O53       1.13657      .   S
    Zr2    O53       2.32382      .   S
    C52    O54       1.14163      .   S
    N16    O54       2.28851  1_556   S
    C55    O56       1.28744      .   S
    N21    O56       2.41344      .   S
    C55    O57       1.28264      .   S
    Zr1    O57       2.55389      .   S
    C58    O59       1.28126      .   S
    Zr2    O59       2.55404  1_554   S
    C58    O60       1.28700      .   S
    N16    O60       2.41299      .   S
    C61    O62       1.18828      .   S
    Zr3    O62       2.43163  1_565   S
    C61    O63       1.14317      .   S
    N19    O63       2.28076      .   S
    C61    O64       1.17786      .   S
    Zr2    O64       2.46904      .   S
    C65    O66       0.74106      .   S
    Zr1    O66       2.18795  1_545   S
    C65    O67       0.87808      .   S
    Zr1    O67       2.03299  1_545   S
    C65    O68       1.16874      .   S
    Zr3    O68       2.45566      .   S
    C65    O69       1.14085      .   S
    N11    O69       2.27494      .   S
    C70    O71       0.87814      .   S
    Zr3    O71       2.03296  1_565   S
    C70    O72       1.16871      .   S
    Zr1    O72       2.45564      .   S
    C70    O73       0.74101      .   S
    Zr3    O73       2.18803  1_565   S
    C70    O74       1.14084      .   S
    N14    O74       2.27491      .   S
    C75    O76       1.14135      .   S
    N19    O76       2.27534      .   S
    C75    O77       0.74034      .   S
    Zr0    O77       2.16431  1_556   S
    C75    O78       0.86824      .   S
    Zr0    O78       2.01947  1_556   S
    C75    O79       1.16777      .   S
    Zr2    O79       2.45524      .   S
    C80    O81       1.18826      .   S
    Zr1    O81       2.43161  1_545   S
    C80    O82       1.17782      .   S
    Zr0    O82       2.46891      .   S
    C80    O83       1.14316      .   S
    N6     O83       2.28075      .   S
