# CIF file generated by openbabel 2.4.90, see http://openbabel.sf.net
data_I
_chemical_name_common ''
_cell_length_a 16.334
_cell_length_b 16.343
_cell_length_c 16.344
_cell_angle_alpha 92.276
_cell_angle_beta 92.425
_cell_angle_gamma 92.394
_space_group_name_H-M_alt 'P 1'
_space_group_name_Hall 'P 1'
loop_
    _symmetry_equiv_pos_as_xyz
    x,y,z
loop_
    _atom_site_label
    _atom_site_type_symbol
    _atom_site_fract_x
    _atom_site_fract_y
    _atom_site_fract_z
    _atom_site_occupancy
    In0     In   0.40931   0.74157   0.15805   1.000
    In1     In   0.15671   0.40826   0.74336   1.000
    In2     In   0.84296   0.25627   0.59174   1.000
    In3     In   0.25769   0.58938   0.84382   1.000
    In4     In   0.59061   0.84222   0.25823   1.000
    In5     In   0.66585   0.33225   0.50084   1.000
    In6     In   0.50007   0.66555   0.33478   1.000
    In7     In   0.33374   0.49909   0.66758   1.000
    H8      H    0.50014   0.02845   0.38736   1.000
    H9      H    0.35795   0.97748   0.34262   1.000
    H10     H    0.27517   0.22389   0.36344   1.000
    H11     H    0.41604   0.27383   0.41150   1.000
    H12     H    0.96589   0.12250   0.28367   1.000
    H13     H    0.09991   0.07215   0.23550   1.000
    H14     H    0.21169   0.13057   0.47517   1.000
    H15     H    0.07944   0.18293   0.52134   1.000
    H16     H    0.66483   0.22903   0.17285   1.000
    H17     H    0.62226   0.27246   0.03322   1.000
    H18     H    0.59288   0.51738   0.13137   1.000
    H19     H    0.63107   0.47299   0.27129   1.000
    H20     H    0.38809   0.50076   0.03101   1.000
    H21     H    0.34359   0.35909   0.97905   1.000
    H22     H    0.36365   0.27434   0.22493   1.000
    H23     H    0.41145   0.41475   0.27594   1.000
    H24     H    0.28144   0.96635   0.12160   1.000
    H25     H    0.23472   0.10105   0.07150   1.000
    H26     H    0.47517   0.21037   0.13209   1.000
    H27     H    0.51992   0.07743   0.18410   1.000
    H28     H    0.17278   0.66333   0.23087   1.000
    H29     H    0.03310   0.61950   0.27316   1.000
    H30     H    0.13007   0.59158   0.51906   1.000
    H31     H    0.27011   0.63092   0.47584   1.000
    In32    In   0.74213   0.15601   0.41064   1.000
    H33     H    0.02887   0.38658   0.50164   1.000
    H34     H    0.97776   0.34239   0.35952   1.000
    H35     H    0.22424   0.36415   0.27672   1.000
    H36     H    0.27432   0.41188   0.41740   1.000
    H37     H    0.12158   0.28126   0.96806   1.000
    H38     H    0.07120   0.23436   0.10250   1.000
    H39     H    0.13146   0.47455   0.21190   1.000
    H40     H    0.18381   0.51944   0.07910   1.000
    H41     H    0.22874   0.17252   0.66357   1.000
    H42     H    0.27045   0.03275   0.61979   1.000
    H43     H    0.51675   0.12865   0.59192   1.000
    H44     H    0.47413   0.26884   0.63132   1.000
    H45     H    0.97118   0.49783   0.61328   1.000
    H46     H    0.02223   0.63997   0.65742   1.000
    H47     H    0.77567   0.72274   0.63575   1.000
    H48     H    0.72565   0.58194   0.58807   1.000
    H49     H    0.87861   0.03150   0.71866   1.000
    H50     H    0.92887   0.89689   0.76554   1.000
    H51     H    0.86825   0.78760   0.52530   1.000
    H52     H    0.81600   0.92046   0.48050   1.000
    H53     H    0.77073   0.33628   0.82687   1.000
    H54     H    0.72948   0.38002   0.96679   1.000
    H55     H    0.48291   0.40806   0.87158   1.000
    H56     H    0.52506   0.36870   0.73123   1.000
    H57     H    0.49967   0.61243   0.97129   1.000
    H58     H    0.64179   0.65718   0.02229   1.000
    H59     H    0.72460   0.63641   0.77597   1.000
    H60     H    0.58379   0.58825   0.72596   1.000
    H61     H    0.03382   0.71630   0.87751   1.000
    H62     H    0.89978   0.76446   0.92782   1.000
    H63     H    0.78817   0.52474   0.86940   1.000
    H64     H    0.92044   0.47861   0.81707   1.000
    H65     H    0.33521   0.82718   0.77094   1.000
    H66     H    0.37783   0.96677   0.72747   1.000
    H67     H    0.40736   0.86845   0.48266   1.000
    H68     H    0.36908   0.72860   0.52707   1.000
    H69     H    0.61294   0.96921   0.49973   1.000
    H70     H    0.65677   0.02114   0.64161   1.000
    H71     H    0.63635   0.77518   0.72615   1.000
    H72     H    0.58899   0.72425   0.58556   1.000
    H73     H    0.71781   0.87773   0.03418   1.000
    H74     H    0.76486   0.92826   0.89983   1.000
    H75     H    0.52462   0.86816   0.78970   1.000
    H76     H    0.47957   0.81558   0.92236   1.000
    H77     H    0.82722   0.76912   0.33642   1.000
    H78     H    0.96689   0.72681   0.38040   1.000
    H79     H    0.86994   0.48096   0.40844   1.000
    H80     H    0.72989   0.52423   0.36900   1.000
    C81     C    0.54999   0.18521   0.43219   1.000
    C82     C    0.46675   0.15441   0.40280   1.000
    C83     C    0.45068   0.07086   0.38257   1.000
    C84     C    0.37188   0.04223   0.35760   1.000
    C85     C    0.30909   0.09747   0.35139   1.000
    C86     C    0.32450   0.18142   0.36924   1.000
    C87     C    0.40297   0.20913   0.39575   1.000
    C88     C    0.93535   0.18502   0.43440   1.000
    C89     C    0.01467   0.15604   0.40531   1.000
    C90     C    0.02025   0.12438   0.32476   1.000
    C91     C    0.09414   0.09647   0.29792   1.000
    C92     C    0.16277   0.09916   0.35220   1.000
    C93     C    0.15813   0.12962   0.43312   1.000
    C94     C    0.08430   0.15852   0.45887   1.000
    C95     C    0.67387   0.31949   0.31436   1.000
    C96     C    0.65133   0.34788   0.23118   1.000
    C97     C    0.64899   0.29212   0.16328   1.000
    C98     C    0.62564   0.31632   0.08533   1.000
    C99     C    0.60581   0.39791   0.07466   1.000
    C100    C    0.54193   0.84038   0.91707   1.000
    C101    C    0.68619   0.67763   0.32624   1.000
    C102    C    0.76944   0.64975   0.34931   1.000
    C103    C    0.83706   0.70608   0.35232   1.000
    C104    C    0.60875   0.45441   0.14142   1.000
    C105    C    0.63050   0.42923   0.21931   1.000
    C106    C    0.43209   0.54960   0.18810   1.000
    C107    C    0.40313   0.46647   0.15685   1.000
    C108    C    0.38322   0.45100   0.07312   1.000
    C109    C    0.35837   0.37245   0.04390   1.000
    C110    C    0.35191   0.30920   0.09868   1.000
    C111    C    0.36956   0.32397   0.18277   1.000
    C112    C    0.39595   0.40222   0.21109   1.000
    C113    C    0.43190   0.93407   0.18522   1.000
    C114    C    0.40343   0.01379   0.15629   1.000
    C115    C    0.32306   0.02030   0.12408   1.000
    C116    C    0.29699   0.09460   0.09628   1.000
    C117    C    0.35186   0.16277   0.09963   1.000
    C118    C    0.43261   0.15720   0.13064   1.000
    C119    C    0.45758   0.08296   0.15939   1.000
    C120    C    0.31383   0.67345   0.32200   1.000
    C121    C    0.23056   0.65050   0.35029   1.000
    C122    C    0.16294   0.64749   0.29392   1.000
    C123    C    0.08498   0.62344   0.31746   1.000
    C124    C    0.07397   0.60363   0.39901   1.000
    C125    C    0.14038   0.60737   0.45612   1.000
    C126    C    0.21835   0.62978   0.43160   1.000
    C127    C    0.18567   0.43105   0.55175   1.000
    C128    C    0.15490   0.40249   0.46829   1.000
    C129    C    0.07127   0.38219   0.45219   1.000
    C130    C    0.04257   0.35750   0.37340   1.000
    C131    C    0.09778   0.35151   0.31068   1.000
    O132    O    0.68098   0.75034   0.30209   1.000
    O133    O    0.68810   0.93751   0.26426   1.000
    O134    O    0.75149   0.24651   0.50145   1.000
    O135    O    0.49911   0.75224   0.24990   1.000
    O136    O    0.24772   0.49898   0.75293   1.000
    C137    C    0.18177   0.36967   0.32603   1.000
    C138    C    0.20957   0.39599   0.40440   1.000
    C139    C    0.18520   0.43159   0.93610   1.000
    C140    C    0.15611   0.40305   0.01559   1.000
    C141    C    0.12390   0.32273   0.02198   1.000
    C142    C    0.09598   0.29659   0.09617   1.000
    C143    C    0.09922   0.35137   0.16427   1.000
    C144    C    0.13018   0.43210   0.15870   1.000
    C145    C    0.15906   0.45713   0.08467   1.000
    C146    C    0.32095   0.31304   0.67396   1.000
    C147    C    0.34842   0.22976   0.65080   1.000
    C148    C    0.29175   0.16242   0.64777   1.000
    C149    C    0.31496   0.08443   0.62376   1.000
    C150    C    0.39646   0.07313   0.60397   1.000
    C151    C    0.45387   0.13926   0.60770   1.000
    C152    C    0.42969   0.21727   0.63011   1.000
    C153    C    0.81433   0.44773   0.56890   1.000
    C154    C    0.84512   0.53117   0.59744   1.000
    C155    C    0.92875   0.54726   0.61770   1.000
    C156    C    0.95742   0.62602   0.64236   1.000
    C157    C    0.90216   0.68877   0.64837   1.000
    C158    C    0.81816   0.67343   0.63024   1.000
    C159    C    0.79040   0.59498   0.60395   1.000
    C160    C    0.81487   0.06358   0.56838   1.000
    C161    C    0.84390   0.98399   0.59688   1.000
    C162    C    0.87618   0.97755   0.67719   1.000
    C163    C    0.90406   0.90331   0.70332   1.000
    C164    C    0.90070   0.83520   0.64854   1.000
    C165    C    0.86965   0.84073   0.56784   1.000
    C166    C    0.84082   0.91490   0.54282   1.000
    C167    C    0.67817   0.32604   0.68660   1.000
    C168    C    0.65088   0.34915   0.76995   1.000
    C169    C    0.70775   0.35210   0.83715   1.000
    C170    C    0.68480   0.37608   0.91524   1.000
    C171    C    0.60335   0.39592   0.92676   1.000
    C172    C    0.54574   0.39224   0.86079   1.000
    C173    C    0.56966   0.36985   0.78268   1.000
    C174    C    0.44981   0.56754   0.81457   1.000
    C175    C    0.53306   0.59695   0.84535   1.000
    C176    C    0.54912   0.61721   0.92800   1.000
    C177    C    0.62789   0.64221   0.95756   1.000
    C178    C    0.69067   0.64847   0.90237   1.000
    C179    C    0.67528   0.63059   0.81842   1.000
    C180    C    0.59684   0.60402   0.79066   1.000
    C181    C    0.06446   0.56556   0.81497   1.000
    C182    C    0.98512   0.59466   0.84396   1.000
    C183    C    0.97949   0.67521   0.87560   1.000
    C184    C    0.90559   0.70204   0.90351   1.000
    C185    C    0.83700   0.64773   0.90080   1.000
    C186    C    0.84170   0.56681   0.87030   1.000
    C187    C    0.91554   0.54108   0.84147   1.000
    C188    C    0.32612   0.68564   0.68050   1.000
    C189    C    0.34876   0.76879   0.65214   1.000
    C190    C    0.35110   0.83671   0.70786   1.000
    C191    C    0.37447   0.91463   0.68365   1.000
    C192    C    0.39433   0.92525   0.60207   1.000
    C193    C    0.39146   0.85846   0.54562   1.000
    C194    C    0.36966   0.78060   0.57080   1.000
    C195    C    0.56921   0.81212   0.45058   1.000
    C196    C    0.59766   0.84337   0.53392   1.000
    C197    C    0.61753   0.92709   0.54950   1.000
    C198    C    0.64202   0.95626   0.62815   1.000
    C199    C    0.64825   0.90143   0.69137   1.000
    C200    C    0.63061   0.81736   0.67652   1.000
    C201    C    0.60448   0.78909   0.59817   1.000
    C202    C    0.56761   0.81392   0.06587   1.000
    C203    C    0.59597   0.84322   0.98630   1.000
    C204    C    0.67634   0.87549   0.98015   1.000
    C205    C    0.70257   0.90352   0.90604   1.000
    C206    C    0.64786   0.90036   0.83774   1.000
    C207    C    0.56706   0.86940   0.84301   1.000
    C208    C    0.91502   0.68253   0.37645   1.000
    C209    C    0.92604   0.60099   0.39633   1.000
    C210    C    0.85962   0.54390   0.39261   1.000
    C211    C    0.78165   0.56844   0.37013   1.000
    C212    C    0.68853   0.99953   0.31212   1.000
    C213    C    0.31127   0.68702   0.00065   1.000
    C214    C    0.99981   0.30993   0.69003   1.000
    O215    O    0.55586   0.26074   0.45875   1.000
    O216    O    0.60812   0.13543   0.43032   1.000
    O217    O    0.23294   0.06583   0.32295   1.000
    O218    O    0.93720   0.21869   0.50669   1.000
    O219    O    0.87267   0.17399   0.38482   1.000
    O220    O    0.66669   0.37167   0.37500   1.000
    O221    O    0.69772   0.24665   0.31940   1.000
    O222    O    0.73583   0.06207   0.31215   1.000
    O223    O    0.45824   0.55535   0.26391   1.000
    O224    O    0.43029   0.60794   0.13858   1.000
    O225    O    0.32337   0.23340   0.06633   1.000
    O226    O    0.50399   0.93515   0.21932   1.000
    O227    O    0.38187   0.87175   0.17350   1.000
    O228    O    0.37457   0.66648   0.37487   1.000
    O229    O    0.31897   0.69724   0.24954   1.000
    O230    O    0.31062   0.73331   0.06371   1.000
    O231    O    0.26103   0.45833   0.55799   1.000
    O232    O    0.13580   0.42770   0.60973   1.000
    O233    O    0.06588   0.32285   0.23478   1.000
    O234    O    0.21920   0.50371   0.93742   1.000
    O235    O    0.17394   0.38164   0.87383   1.000
    O236    O    0.37365   0.37357   0.66687   1.000
    O237    O    0.24831   0.31844   0.69811   1.000
    O238    O    0.06291   0.30911   0.73650   1.000
    O239    O    0.73897   0.44153   0.54166   1.000
    O240    O    0.86418   0.38970   0.57238   1.000
    O241    O    0.93403   0.76466   0.67708   1.000
    O242    O    0.78087   0.06242   0.49626   1.000
    O243    O    0.82617   0.12580   0.61841   1.000
    O244    O    0.62539   0.33331   0.62609   1.000
    O245    O    0.75075   0.30182   0.68106   1.000
    O246    O    0.93681   0.26334   0.69091   1.000
    O247    O    0.44391   0.54084   0.73908   1.000
    O248    O    0.39171   0.56952   0.86435   1.000
    O249    O    0.76680   0.67697   0.93408   1.000
    O250    O    0.06264   0.49332   0.78128   1.000
    O251    O    0.12708   0.61522   0.82600   1.000
    O252    O    0.33326   0.62490   0.62831   1.000
    O253    O    0.30226   0.68063   0.75333   1.000
    O254    O    0.26408   0.68758   0.93807   1.000
    O255    O    0.54208   0.73671   0.44476   1.000
    O256    O    0.57259   0.86167   0.39228   1.000
    O257    O    0.67657   0.93373   0.76726   1.000
    O258    O    0.49573   0.77932   0.06472   1.000
    O259    O    0.61767   0.82563   0.12810   1.000
    O260    O    0.62543   0.62524   0.33343   1.000
    O261    O    0.57665   0.42602   0.00077   1.000
    O262    O    0.00002   0.57367   0.42630   1.000
    O263    O    0.42340   0.99916   0.57395   1.000
loop_
    _geom_bond_atom_site_label_1
    _geom_bond_atom_site_label_2
    _geom_bond_distance
    _geom_bond_site_symmetry_2
    _ccdc_geom_bond_type
    C213   O230      1.25472      .   S
    C213   O254      1.25506  1_554   S
    O261   C99       1.38202      .   S
    O261   C171      1.38224  1_554   S
    C140   C141      1.40314      .   S
    C140   C145      1.40383      .   S
    C140   C139      1.48765  1_554   S
    C141   C142      1.39014      .   S
    C141   H37       1.08851  1_554   S
    H58    C177      1.08865  1_554   S
    H20    C108      1.08860      .   S
    H17    C98       1.08920      .   S
    H73    C204      1.08847  1_554   S
    C109   C108      1.38995      .   S
    C109   C110      1.39771      .   S
    C109   H21       1.08856  1_554   S
    O230   In0       2.17927      .   S
    O258   C202      1.28079      .   S
    C202   O259      1.28095      .   S
    C202   C203      1.48901  1_554   S
    O225   C110      1.38215      .   S
    O225   C117      1.38509      .   S
    H25    C116      1.08959      .   S
    C108   C107      1.40372      .   S
    C99    C98       1.40120      .   S
    C99    C104      1.39898      .   S
    H40    C145      1.08851      .   S
    C145   C144      1.38762      .   S
    C98    C97       1.39153      .   S
    C142   H38       1.08919      .   S
    C142   C143      1.39826      .   S
    C116   C117      1.39813      .   S
    C116   C115      1.39038      .   S
    C110   C111      1.40163      .   S
    C117   C118      1.40079      .   S
    H24    C115      1.08890  1_565   S
    C115   C114      1.40332      .   S
    O259   In4       2.19912      .   S
    C118   H26       1.08877      .   S
    C118   C119      1.38911      .   S
    H18    C104      1.08876      .   S
    O224   C106      1.27540      .   S
    C104   C105      1.38984      .   S
    C114   C119      1.40401      .   S
    C114   C113      1.48934  1_545   S
    C107   C106      1.48366      .   S
    C107   C112      1.40516      .   S
    In0    O227      2.19944      .   S
    C144   C143      1.40072      .   S
    C144   H39       1.08963      .   S
    C119   H27       1.08809      .   S
    C97    H16       1.08924      .   S
    C97    C96       1.40584      .   S
    C143   O233      1.38437      .   S
    O227   C113      1.28206      .   S
    C111   C112      1.38770      .   S
    C111   H22       1.08880      .   S
    C113   O226      1.28037      .   S
    C106   O223      1.29192      .   S
    C112   H23       1.08863      .   S
    C105   C96       1.40499      .   S
    C105   H19       1.08800      .   S
    H28    C122      1.08926      .   S
    C96    C95       1.49031      .   S
    O233   C131      1.38150      .   S
    H13    C91       1.08937      .   S
    O229   C120      1.26613      .   S
    O135   In4       2.04898      .   S
    O135   In6       2.02197      .   S
    In4    O133      2.17660      .   S
    O223   In6       2.17171      .   S
    O133   C212      1.25511      .   S
    H29    C123      1.08914      .   S
    H35    C137      1.08886      .   S
    H12    C90       1.08900  1_655   S
    C122   C123      1.39130      .   S
    C122   C121      1.40605      .   S
    C91    C90       1.38997      .   S
    C91    C92       1.39791      .   S
    O132   C101      1.27197      .   S
    C131   C137      1.40147      .   S
    C131   C130      1.39695      .   S
    C212   O222      1.25512  1_565   S
    O222   In32      2.17616      .   S
    C95    O221      1.27261      .   S
    C95    O220      1.29399      .   S
    C123   C124      1.40121      .   S
    C120   C121      1.49289      .   S
    C120   O228      1.29947      .   S
    O217   C85       1.38168      .   S
    O217   C92       1.38452      .   S
    C90    C89       1.40326      .   S
    C137   C138      1.38655      .   S
    C101   O260      1.29569      .   S
    C101   C102      1.49036      .   S
    In6    O255      2.17199      .   S
    H77    C103      1.08920      .   S
    H9     C84       1.08913  1_565   S
    C102   C103      1.40598      .   S
    C102   C211      1.40477      .   S
    C121   C126      1.40466      .   S
    C85    C84       1.39752      .   S
    C85    C86       1.40134      .   S
    C92    C93       1.40076      .   S
    C103   C208      1.39129      .   S
    C84    C83       1.38994      .   S
    H34    C130      1.08922  1_655   S
    H10    C86       1.08879      .   S
    H80    C211      1.08797      .   S
    C86    C87       1.38716      .   S
    C211   C210      1.39021      .   S
    C130   C129      1.39023      .   S
    C208   H78       1.08916      .   S
    C208   C209      1.40116      .   S
    C83    H8        1.08856      .   S
    C83    C82       1.40340      .   S
    O219   In32      2.20102      .   S
    O219   C88       1.28064      .   S
    O256   C195      1.27620      .   S
    C210   C209      1.39867      .   S
    C210   H79       1.08868      .   S
    C87    C82       1.40517      .   S
    C87    H11       1.08847      .   S
    C209   O262      1.38267  1_655   S
    C124   O262      1.38251      .   S
    C124   C125      1.39855      .   S
    C82    C81       1.48363      .   S
    C138   H36       1.08852      .   S
    C138   C128      1.40611      .   S
    C89    C88       1.48812  1_455   S
    C89    C94       1.40375      .   S
    In32   O134      2.04961      .   S
    O216   C81       1.27653      .   S
    C126   C125      1.39024      .   S
    C126   H31       1.08800      .   S
    C81    O215      1.29043      .   S
    C93    C94       1.38891      .   S
    C93    H14       1.08862      .   S
    C88    O218      1.28207      .   S
    O255   C195      1.29072      .   S
    C195   C196      1.48437      .   S
    C129   C128      1.40354      .   S
    C129   H33       1.08858      .   S
    C125   H30       1.08871      .   S
    O215   In5       2.17330      .   S
    C94    H15       1.08856      .   S
    C128   C127      1.48424      .   S
    H52    C166      1.08885      .   S
    H67    C193      1.08877      .   S
    O242   C160      1.28066      .   S
    H69    C197      1.08853      .   S
    In5    O134      2.02106      .   S
    In5    O239      2.17278      .   S
    H51    C165      1.08948      .   S
    H68    C194      1.08790      .   S
    C196   C197      1.40369      .   S
    C196   C201      1.40514      .   S
    O239   C153      1.28969      .   S
    C166   C165      1.38881      .   S
    C166   C161      1.40375      .   S
    C193   C194      1.38985      .   S
    C193   C192      1.39890      .   S
    C197   C198      1.38983      .   S
    C127   O231      1.29011      .   S
    C127   O232      1.27677      .   S
    O231   In7       2.17291      .   S
    C165   C164      1.40062      .   S
    C160   C161      1.48822  1_545   S
    C160   O243      1.28147      .   S
    C153   O240      1.27691      .   S
    C153   C154      1.48400      .   S
    C194   C189      1.40513      .   S
    O263   C192      1.38222      .   S
    O263   C150      1.38247  1_565   S
    H72    C201      1.08860      .   S
    H48    C159      1.08854      .   S
    In2    O243      2.20151      .   S
    In2    O246      2.17948      .   S
    H43    C151      1.08872      .   S
    C161   C162      1.40320      .   S
    C154   C159      1.40518      .   S
    C154   C155      1.40344      .   S
    C201   C200      1.38770      .   S
    C192   C191      1.40120      .   S
    C159   C158      1.38764      .   S
    C150   C151      1.39859      .   S
    C150   C149      1.40106      .   S
    C151   C152      1.39029      .   S
    H45    C155      1.08845      .   S
    C155   C156      1.38961      .   S
    H42    C149      1.08925      .   S
    C149   C148      1.39136      .   S
    O244   C167      1.29652      .   S
    C198   H70       1.08919  1_565   S
    C198   C199      1.39759      .   S
    O252   C188      1.29509      .   S
    C152   H44       1.08807      .   S
    C152   C147      1.40475      .   S
    C158   H47       1.08884      .   S
    C158   C157      1.40146      .   S
    C156   C157      1.39745      .   S
    C156   H46       1.08930  1_655   S
    C148   C147      1.40608      .   S
    C148   H41       1.08925      .   S
    C157   O241      1.38149      .   S
    C164   O241      1.38438      .   S
    C164   C163      1.39831      .   S
    C147   C146      1.49051      .   S
    C189   C188      1.49024      .   S
    C189   C190      1.40585      .   S
    O236   C146      1.29605      .   S
    In7    O247      2.17380      .   S
    In7    O136      2.02136      .   S
    C146   O237      1.27163      .   S
    C200   C199      1.40149      .   S
    C200   H71       1.08877      .   S
    C162   C163      1.39016      .   S
    C162   H49       1.08894  1_565   S
    C188   O253      1.27271      .   S
    O245   C167      1.27125      .   S
    C191   C190      1.39145      .   S
    C191   H66       1.08915      .   S
    C167   C168      1.49053      .   S
    C214   O246      1.25527      .   S
    C214   O238      1.25503  1_655   S
    C199   O257      1.38212      .   S
    C163   H50       1.08933      .   S
    C190   H65       1.08927      .   S
    H60    C180      1.08847      .   S
    H56    C173      1.08811      .   S
    O238   In1       2.17926      .   S
    O247   C174      1.29058      .   S
    In1    O235      2.20200      .   S
    O136   In3       2.04967      .   S
    O257   C206      1.38515      .   S
    C168   C173      1.40467      .   S
    C168   C169      1.40619      .   S
    H59    C179      1.08887      .   S
    O250   C181      1.28142      .   S
    C173   C172      1.39040      .   S
    H75    C207      1.08928      .   S
    C180   C179      1.38731      .   S
    C180   C175      1.40523      .   S
    C174   C175      1.48364      .   S
    C174   O248      1.27654      .   S
    C181   O251      1.28095      .   S
    C181   C182      1.48844  1_455   S
    H64    C187      1.08855      .   S
    C179   C178      1.40144      .   S
    O251   In3       2.20163      .   S
    H53    C169      1.08923      .   S
    C169   C170      1.39146      .   S
    C206   C207      1.40086      .   S
    C206   C205      1.39805      .   S
    C187   C182      1.40372      .   S
    C187   C186      1.38857      .   S
    C207   C100      1.38927      .   S
    In3    O254      2.17616      .   S
    C182   C183      1.40309      .   S
    C175   C176      1.38938      .   S
    C172   H55       1.08868      .   S
    C172   C171      1.39851      .   S
    H63    C186      1.08868      .   S
    C186   C185      1.40098      .   S
    O235   C139      1.28127      .   S
    C183   H61       1.08896  1_655   S
    C183   C184      1.39008      .   S
    H74    C205      1.08936      .   S
    C185   C184      1.39799      .   S
    C185   O249      1.38461      .   S
    C178   O249      1.38186      .   S
    C178   C177      1.39741      .   S
    C184   H62       1.08934      .   S
    C205   C204      1.39000      .   S
    C170   C171      1.40105      .   S
    C170   H54       1.08925      .   S
    C100   H76       1.08858      .   S
    C100   C203      1.40340      .   S
    C176   C177      1.39414      .   S
    C176   H57       1.09843      .   S
    C139   O234      1.28083      .   S
    C204   C203      1.40327      .   S
    O216   In32      2.23932      .   S
    O218   In2       2.20697      .   S
    O220   In5       2.17997      .   S
    O221   In32      2.26225      .   S
    O224   In0       2.23714      .   S
    O226   In4       2.21198      .   S
    O228   In6       2.17884      .   S
    O229   In0       2.26308      .   S
    O232   In1       2.23351      .   S
    O234   In3       2.20763      .   S
    O236   In7       2.17794      .   S
    O237   In1       2.26524      .   S
    O240   In2       2.23084      .   S
    O242   In32      2.20782      .   S
    O244   In5       2.17718      .   S
    O245   In2       2.26878      .   S
    O248   In3       2.23962      .   S
    O250   In1       2.20629      .   S
    O252   In7       2.17846      .   S
    O253   In3       2.26204      .   S
    O256   In4       2.23491      .   S
    O258   In0       2.21003      .   S
    O260   In6       2.17777      .   S
    O132   In4       2.26470      .   S
    O134   In2       2.05189      .   S
    O135   In0       2.05107      .   S
    O136   In1       2.05190      .   S
