# CIF file generated by openbabel 2.4.90, see http://openbabel.sf.net
data_I
_chemical_name_common ''
_cell_length_a 16.334
_cell_length_b 16.343
_cell_length_c 16.344
_cell_angle_alpha 92.276
_cell_angle_beta 92.425
_cell_angle_gamma 92.394
_space_group_name_H-M_alt 'P 1'
_space_group_name_Hall 'P 1'
loop_
    _symmetry_equiv_pos_as_xyz
    x,y,z
loop_
    _atom_site_label
    _atom_site_type_symbol
    _atom_site_fract_x
    _atom_site_fract_y
    _atom_site_fract_z
    _atom_site_occupancy
    In0     In   0.40931   0.74157   0.15805   1.000
    In1     In   0.15671   0.40826   0.74336   1.000
    In2     In   0.84296   0.25627   0.59174   1.000
    In3     In   0.25769   0.58938   0.84382   1.000
    In4     In   0.59061   0.84222   0.25823   1.000
    In5     In   0.66585   0.33225   0.50084   1.000
    In6     In   0.50007   0.66555   0.33478   1.000
    In7     In   0.33374   0.49909   0.66758   1.000
    In8     In   0.74213   0.15601   0.41064   1.000
    O9      O    0.75149   0.24651   0.50145   1.000
    O10     O    0.49911   0.75224   0.24990   1.000
    O11     O    0.24772   0.49898   0.75293   1.000
loop_
    _geom_bond_atom_site_label_1
    _geom_bond_atom_site_label_2
    _geom_bond_distance
    _geom_bond_site_symmetry_2
    _ccdc_geom_bond_type
    O10    In4       2.04898      .   S
    O10    In6       2.02197      .   S
    In8    O9        2.04961      .   S
    In5    O9        2.02106      .   S
    In7    O11       2.02136      .   S
    O11    In3       2.04967      .   S
    O9     In2       2.05189      .   S
    O10    In0       2.05107      .   S
    O11    In1       2.05190      .   S
