# CIF file generated by openbabel 2.4.90, see http://openbabel.sf.net
data_I
_chemical_name_common ''
_cell_length_a 16.334
_cell_length_b 16.343
_cell_length_c 16.344
_cell_angle_alpha 92.276
_cell_angle_beta 92.425
_cell_angle_gamma 92.394
_space_group_name_H-M_alt 'P 1'
_space_group_name_Hall 'P 1'
loop_
    _symmetry_equiv_pos_as_xyz
    x,y,z
loop_
    _atom_site_label
    _atom_site_type_symbol
    _atom_site_fract_x
    _atom_site_fract_y
    _atom_site_fract_z
    _atom_site_occupancy
    N0      N    0.38917   0.23883   0.14029   1.000
    N1      N    0.23920   0.13913   0.38971   1.000
    N2      N    0.61095   0.85961   0.76150   1.000
    N3      N    0.00000   0.63646   0.36345   1.000
    N4      N    0.70415   0.99970   0.29618   1.000
    N5      N    0.29532   0.70264   0.00081   1.000
    N6      N    0.99984   0.29412   0.70581   1.000
    N7      N    0.76058   0.61016   0.86073   1.000
    N8      N    0.86064   0.75895   0.61127   1.000
    N9      N    0.13934   0.38866   0.24055   1.000
    N10     N    0.36194   0.99925   0.63763   1.000
    N11     N    0.63784   0.36234   0.00060   1.000
    Zr12    Zr   0.49977   0.75039   0.25024   1.000
    O13     O    0.58576   0.84759   0.26448   1.000
    O14     O    0.41371   0.73522   0.15304   1.000
    Zr15    Zr   0.75061   0.24776   0.50117   1.000
    O16     O    0.73609   0.15106   0.41498   1.000
    O17     O    0.84774   0.26236   0.58737   1.000
    Zr18    Zr   0.24897   0.49893   0.75192   1.000
    O19     O    0.15190   0.41267   0.73740   1.000
    O20     O    0.26353   0.58474   0.84890   1.000
    O21     O    0.28449   0.34924   0.70886   1.000
    O22     O    0.29165   0.64890   0.71618   1.000
    O23     O    0.70804   0.28363   0.35110   1.000
    O24     O    0.71507   0.29094   0.65072   1.000
    O25     O    0.89729   0.20897   0.46638   1.000
    O26     O    0.59585   0.21394   0.46055   1.000
    O27     O    0.78496   0.40235   0.54131   1.000
    O28     O    0.78997   0.10115   0.53572   1.000
    O29     O    0.35007   0.70749   0.28581   1.000
    O30     O    0.64970   0.71452   0.29277   1.000
    O31     O    0.21477   0.45872   0.59726   1.000
    O32     O    0.20979   0.46432   0.89850   1.000
    O33     O    0.10239   0.53364   0.79080   1.000
    O34     O    0.40382   0.53943   0.78582   1.000
    O35     O    0.53471   0.78940   0.10356   1.000
    O36     O    0.54046   0.78423   0.40487   1.000
    O37     O    0.46504   0.89682   0.21076   1.000
    O38     O    0.45955   0.59555   0.21615   1.000
loop_
    _geom_bond_atom_site_label_1
    _geom_bond_atom_site_label_2
    _geom_bond_distance
    _geom_bond_site_symmetry_2
    _ccdc_geom_bond_type
    Zr12   O13       2.07525      .   S
    N4     O13       3.09827      .   S
    Zr12   O14       2.07654      .   S
    N5     O14       3.10079      .   S
    Zr15   O16       2.07403      .   S
    N4     O16       3.09623  1_565   S
    Zr15   O17       2.07637      .   S
    N6     O17       3.09762      .   S
    Zr18   O19       2.07666      .   S
    N6     O19       3.09810  1_655   S
    Zr18   O20       2.07352      .   S
    N5     O20       3.09415  1_554   S
    N10    O21       5.98933  1_565   S
    Zr18   O21       2.61405      .   S
    N10    O22       5.99255      .   S
    Zr18   O22       2.61540      .   S
    Zr15   O23       2.61661      .   S
    N11    O23       5.99490      .   S
    Zr15   O24       2.61276      .   S
    N11    O24       5.98814  1_554   S
    Zr15   O25       2.58437      .   S
    N1     O25       5.92235  1_455   S
    Zr15   O26       2.61689      .   S
    N1     O26       5.95765      .   S
    Zr15   O27       2.61674      .   S
    N8     O27       5.96228      .   S
    Zr15   O28       2.58434      .   S
    N8     O28       5.92459  1_565   S
    N3     O29       5.98582      .   S
    Zr12   O29       2.61121      .   S
    N3     O30       5.98899  1_455   S
    Zr12   O30       2.61393      .   S
    N9     O31       5.96354      .   S
    Zr18   O31       2.61747      .   S
    N9     O32       5.92287  1_554   S
    Zr18   O32       2.58375      .   S
    Zr18   O33       2.58291      .   S
    N7     O33       5.92028  1_655   S
    Zr18   O34       2.61826      .   S
    N7     O34       5.95942      .   S
    Zr12   O35       2.58563      .   S
    N2     O35       5.92472  1_556   S
    Zr12   O36       2.61747      .   S
    N2     O36       5.96332      .   S
    Zr12   O37       2.58265      .   S
    N0     O37       5.92223  1_545   S
    Zr12   O38       2.61992      .   S
    N0     O38       5.96598      .   S
