# CIF file generated by openbabel 2.4.90, see http://openbabel.sf.net
data_I
_chemical_name_common ''
_cell_length_a 16.334
_cell_length_b 16.343
_cell_length_c 16.344
_cell_angle_alpha 92.276
_cell_angle_beta 92.425
_cell_angle_gamma 92.394
_space_group_name_H-M_alt 'P 1'
_space_group_name_Hall 'P 1'
loop_
    _symmetry_equiv_pos_as_xyz
    x,y,z
loop_
    _atom_site_label
    _atom_site_type_symbol
    _atom_site_fract_x
    _atom_site_fract_y
    _atom_site_fract_z
    _atom_site_occupancy
    Zr0     Zr   0.74213   0.15601   0.41064   1.000
    Zr1     Zr   0.40931   0.74157   0.15805   1.000
    Zr2     Zr   0.15671   0.40826   0.74336   1.000
    Zr3     Zr   0.84296   0.25627   0.59174   1.000
    Zr4     Zr   0.25769   0.58938   0.84382   1.000
    Zr5     Zr   0.59061   0.84222   0.25823   1.000
    Zr6     Zr   0.66585   0.33225   0.50084   1.000
    Zr7     Zr   0.50007   0.66555   0.33478   1.000
    Zr8     Zr   0.33374   0.49909   0.66758   1.000
    Zr9     Zr   0.75149   0.24651   0.50145   1.000
    Zr10    Zr   0.49911   0.75224   0.24990   1.000
    Zr11    Zr   0.24772   0.49898   0.75293   1.000
    O12     O    0.54486   0.79723   0.25407   1.000
    O13     O    0.49959   0.70889   0.29234   1.000
    O14     O    0.74681   0.20126   0.45604   1.000
    O15     O    0.70867   0.28938   0.50115   1.000
    O16     O    0.29073   0.49903   0.71026   1.000
    O17     O    0.25271   0.54418   0.79837   1.000
    O18     O    0.79723   0.25139   0.54660   1.000
    O19     O    0.45421   0.74690   0.20398   1.000
    O20     O    0.20221   0.45362   0.74815   1.000
    N21     N    0.38917   0.23883   0.14029   1.000
    O22     O    0.43416   0.42464   0.21982   1.000
    O23     O    0.40448   0.45679   0.14430   1.000
    O24     O    0.46823   0.06376   0.18953   1.000
    O25     O    0.39238   0.02274   0.15303   1.000
    N26     N    0.23920   0.13913   0.38971   1.000
    O27     O    0.42503   0.21781   0.43475   1.000
    O28     O    0.45717   0.14242   0.40510   1.000
    O29     O    0.06464   0.18830   0.46946   1.000
    O30     O    0.02330   0.15206   0.39372   1.000
    N31     N    0.61095   0.85961   0.76150   1.000
    O32     O    0.56601   0.78037   0.57564   1.000
    O33     O    0.59627   0.85578   0.54338   1.000
    O34     O    0.53173   0.81003   0.93644   1.000
    O35     O    0.60754   0.84677   0.97733   1.000
    N36     N    0.00000   0.63646   0.36345   1.000
    O37     O    0.81790   0.71637   0.32181   1.000
    O38     O    0.21866   0.65124   0.35914   1.000
    O39     O    0.18207   0.67793   0.28362   1.000
    O40     O    0.78138   0.64092   0.34878   1.000
    N41     N    0.70415   0.99970   0.29618   1.000
    O42     O    0.67175   0.94478   0.27871   1.000
    O43     O    0.72157   0.05437   0.32879   1.000
    N44     N    0.29532   0.70264   0.00081   1.000
    O45     O    0.32764   0.72004   0.05585   1.000
    O46     O    0.27810   0.67056   0.94588   1.000
    N47     N    0.99984   0.29412   0.70581   1.000
    O48     O    0.05483   0.32641   0.72287   1.000
    O49     O    0.94487   0.27696   0.67357   1.000
    N50     N    0.76058   0.61016   0.86073   1.000
    O51     O    0.57470   0.56506   0.78203   1.000
    O52     O    0.54264   0.59480   0.85741   1.000
    O53     O    0.93513   0.53048   0.81152   1.000
    O54     O    0.97648   0.60623   0.84782   1.000
    N55     N    0.86064   0.75895   0.61127   1.000
    O56     O    0.78152   0.57292   0.56626   1.000
    O57     O    0.85711   0.54097   0.59666   1.000
    O58     O    0.81107   0.93408   0.53236   1.000
    O59     O    0.84760   0.97499   0.60817   1.000
    N60     N    0.13934   0.38866   0.24055   1.000
    O61     O    0.21836   0.43368   0.42667   1.000
    O62     O    0.14280   0.40332   0.45855   1.000
    O63     O    0.18890   0.46760   0.06558   1.000
    O64     O    0.15233   0.39181   0.02457   1.000
    N65     N    0.36194   0.99925   0.63763   1.000
    O66     O    0.35782   0.21779   0.65243   1.000
    O67     O    0.28222   0.18130   0.67918   1.000
    O68     O    0.34772   0.78063   0.64279   1.000
    O69     O    0.32096   0.81713   0.71810   1.000
    N70     N    0.63784   0.36234   0.00060   1.000
    O71     O    0.65205   0.35715   0.21926   1.000
    O72     O    0.67888   0.28183   0.18281   1.000
    O73     O    0.64173   0.34756   0.78203   1.000
    O74     O    0.71735   0.32069   0.81850   1.000
loop_
    _geom_bond_atom_site_label_1
    _geom_bond_atom_site_label_2
    _geom_bond_distance
    _geom_bond_site_symmetry_2
    _ccdc_geom_bond_type
    Zr10   O12       1.02449      .   S
    Zr5    O12       1.02449      .   S
    Zr10   O13       1.01098      .   S
    Zr7    O13       1.01098      .   S
    Zr0    O14       1.02481      .   S
    Zr9    O14       1.02481      .   S
    Zr6    O15       1.01053      .   S
    Zr9    O15       1.01053      .   S
    Zr8    O16       1.01068      .   S
    Zr11   O16       1.01068      .   S
    Zr11   O17       1.02483      .   S
    Zr4    O17       1.02483      .   S
    Zr9    O18       1.02594      .   S
    Zr3    O18       1.02594      .   S
    Zr10   O19       1.02554      .   S
    Zr1    O19       1.02554      .   S
    Zr11   O20       1.02595      .   S
    Zr2    O20       1.02595      .   S
    N21    O22       3.29702      .   S
    Zr7    O22       4.36781      .   S
    N21    O23       3.55832      .   S
    Zr1    O23       4.64785      .   S
    N21    O24       3.30235      .   S
    Zr5    O24       4.37058  1_565   S
    N21    O25       3.54828      .   S
    Zr1    O25       4.61881  1_565   S
    N26    O27       3.28906      .   S
    Zr6    O27       4.35924      .   S
    N26    O28       3.55644      .   S
    Zr0    O28       4.64754      .   S
    N26    O29       3.30112      .   S
    Zr3    O29       4.37155  1_655   S
    N26    O30       3.54487      .   S
    Zr0    O30       4.61560  1_655   S
    N31    O32       3.29602      .   S
    Zr7    O32       4.36623      .   S
    N31    O33       3.56083      .   S
    Zr5    O33       4.65377      .   S
    N31    O34       3.30387      .   S
    Zr1    O34       4.37228  1_554   S
    N31    O35       3.54472      .   S
    Zr5    O35       4.61430  1_554   S
    N36    O37       3.35264  1_455   S
    Zr5    O37       4.42429      .   S
    N36    O38       3.57353      .   S
    Zr7    O38       4.62753      .   S
    N36    O39       3.35203      .   S
    Zr1    O39       4.42293      .   S
    N36    O40       3.57291  1_455   S
    Zr7    O40       4.62597      .   S
    N41    O42       1.04608      .   S
    Zr5    O42       2.10010      .   S
    N41    O43       1.04469  1_565   S
    Zr0    O43       2.09785      .   S
    N44    O45       1.04671      .   S
    Zr1    O45       2.10216      .   S
    N44    O46       1.04353  1_554   S
    Zr4    O46       2.09617      .   S
    N47    O48       1.04412  1_655   S
    Zr2    O48       2.09818      .   S
    N47    O49       1.04404      .   S
    Zr3    O49       2.09812      .   S
    N50    O51       3.28987      .   S
    Zr8    O51       4.36062      .   S
    N50    O52       3.55619      .   S
    Zr4    O52       4.64727      .   S
    N50    O53       3.30030      .   S
    Zr2    O53       4.37009  1_455   S
    N50    O54       3.54482      .   S
    Zr4    O54       4.61600  1_455   S
    N55    O56       3.29667      .   S
    Zr6    O56       4.36552      .   S
    N55    O57       3.55892      .   S
    Zr3    O57       4.64628      .   S
    N55    O58       3.30294      .   S
    Zr0    O58       4.37099  1_545   S
    N55    O59       3.54827      .   S
    Zr3    O59       4.61892  1_545   S
    N60    O61       3.29717      .   S
    Zr8    O61       4.36662      .   S
    N60    O62       3.55940      .   S
    Zr2    O62       4.64824      .   S
    N60    O63       3.30132      .   S
    Zr4    O63       4.36938  1_556   S
    N60    O64       3.54752      .   S
    Zr2    O64       4.61803  1_556   S
    N65    O66       3.57380  1_565   S
    Zr8    O66       4.62811      .   S
    N65    O67       3.35362  1_565   S
    Zr2    O67       4.42381      .   S
    N65    O68       3.57547      .   S
    Zr8    O68       4.63196      .   S
    N65    O69       3.35504      .   S
    Zr4    O69       4.42828      .   S
    N70    O71       3.57609      .   S
    Zr6    O71       4.63299      .   S
    N70    O72       3.35634      .   S
    Zr0    O72       4.42959      .   S
    N70    O73       3.57428  1_554   S
    Zr6    O73       4.62703      .   S
    N70    O74       3.35381  1_554   S
    Zr3    O74       4.42360      .   S
