# CIF file generated by openbabel 2.4.90, see http://openbabel.sf.net
data_I
_chemical_name_common ''
_cell_length_a 16.334
_cell_length_b 16.343
_cell_length_c 16.344
_cell_angle_alpha 92.276
_cell_angle_beta 92.425
_cell_angle_gamma 92.394
_space_group_name_H-M_alt 'P 1'
_space_group_name_Hall 'P 1'
loop_
    _symmetry_equiv_pos_as_xyz
    x,y,z
loop_
    _atom_site_label
    _atom_site_type_symbol
    _atom_site_fract_x
    _atom_site_fract_y
    _atom_site_fract_z
    _atom_site_occupancy
    N0      N    0.38917   0.23883   0.14029   1.000
    N1      N    0.23920   0.13913   0.38971   1.000
    N2      N    0.61095   0.85961   0.76150   1.000
    N3      N    0.00000   0.63646   0.36345   1.000
    N4      N    0.70415   0.99970   0.29618   1.000
    N5      N    0.29532   0.70264   0.00081   1.000
    N6      N    0.99984   0.29412   0.70581   1.000
    N7      N    0.76058   0.61016   0.86073   1.000
    N8      N    0.86064   0.75895   0.61127   1.000
    N9      N    0.13934   0.38866   0.24055   1.000
    N10     N    0.36194   0.99925   0.63763   1.000
    N11     N    0.63784   0.36234   0.00060   1.000
    Zr12    Zr   0.49977   0.75039   0.25024   1.000
    O13     O    0.65883   0.73338   0.28602   1.000
    O14     O    0.58576   0.84759   0.26448   1.000
    O15     O    0.54802   0.80309   0.39681   1.000
    O16     O    0.55366   0.79858   0.11379   1.000
    O17     O    0.48400   0.90708   0.21989   1.000
    O18     O    0.41371   0.73522   0.15304   1.000
    O19     O    0.34092   0.71416   0.26693   1.000
    O20     O    0.51575   0.78021   0.09334   1.000
    O21     O    0.45213   0.60359   0.19727   1.000
    O22     O    0.44607   0.88657   0.20164   1.000
    O23     O    0.35922   0.70081   0.30469   1.000
    O24     O    0.64057   0.69566   0.29951   1.000
    O25     O    0.53289   0.76538   0.41294   1.000
    O26     O    0.46697   0.58752   0.23503   1.000
    Zr27    Zr   0.75061   0.24776   0.50117   1.000
    O28     O    0.71475   0.26480   0.34199   1.000
    O29     O    0.73609   0.15106   0.41498   1.000
    O30     O    0.78084   0.09092   0.51676   1.000
    O31     O    0.88696   0.19991   0.44744   1.000
    O32     O    0.60389   0.19509   0.45313   1.000
    O33     O    0.84774   0.26236   0.58737   1.000
    O34     O    0.80386   0.39436   0.54892   1.000
    O35     O    0.90763   0.21803   0.48532   1.000
    O36     O    0.73398   0.28422   0.65983   1.000
    O37     O    0.79911   0.11137   0.55467   1.000
    O38     O    0.70133   0.30245   0.36021   1.000
    O39     O    0.69617   0.29766   0.64160   1.000
    O40     O    0.58782   0.23278   0.46796   1.000
    O41     O    0.76607   0.41034   0.53371   1.000
    Zr42    Zr   0.24897   0.49893   0.75192   1.000
    O43     O    0.30339   0.35836   0.70218   1.000
    O44     O    0.23366   0.46631   0.58929   1.000
    O45     O    0.41183   0.53200   0.76698   1.000
    O46     O    0.29834   0.63978   0.69736   1.000
    O47     O    0.09205   0.51470   0.78172   1.000
    O48     O    0.15190   0.41267   0.73740   1.000
    O49     O    0.26559   0.34012   0.71555   1.000
    O50     O    0.19588   0.45112   0.60523   1.000
    O51     O    0.20065   0.44537   0.88825   1.000
    O52     O    0.26353   0.58474   0.84890   1.000
    O53     O    0.21893   0.48327   0.90875   1.000
    O54     O    0.11272   0.55258   0.79987   1.000
    O55     O    0.28496   0.65803   0.73501   1.000
    O56     O    0.39580   0.54687   0.80466   1.000
loop_
    _geom_bond_atom_site_label_1
    _geom_bond_atom_site_label_2
    _geom_bond_distance
    _geom_bond_site_symmetry_2
    _ccdc_geom_bond_type
    Zr12   O13       2.66725      .   S
    N3     O13       5.95519  1_455   S
    Zr12   O14       2.07525      .   S
    N4     O14       3.09827      .   S
    Zr12   O15       2.59250      .   S
    N2     O15       6.03351      .   S
    Zr12   O16       2.57222      .   S
    N2     O16       5.98798  1_556   S
    Zr12   O17       2.64850      .   S
    N0     O17       5.88041  1_545   S
    Zr12   O18       2.07654      .   S
    N5     O18       3.10079      .   S
    Zr12   O19       2.66492      .   S
    N3     O19       5.95167      .   S
    Zr12   O20       2.65079      .   S
    N2     O20       5.88395  1_556   S
    Zr12   O21       2.59485      .   S
    N0     O21       6.03561      .   S
    Zr12   O22       2.56860      .   S
    N0     O22       5.98653  1_545   S
    Zr12   O23       2.60656      .   S
    N3     O23       6.04127      .   S
    Zr12   O24       2.60965      .   S
    N3     O24       6.04409  1_455   S
    Zr12   O25       2.69058      .   S
    N2     O25       5.91415      .   S
    Zr12   O26       2.69291      .   S
    N0     O26       5.91730      .   S
    Zr27   O28       2.67045      .   S
    N11    O28       5.96090      .   S
    Zr27   O29       2.07403      .   S
    N4     O29       3.09623  1_565   S
    Zr27   O30       2.65062      .   S
    N8     O30       5.88265  1_565   S
    Zr27   O31       2.56882      .   S
    N1     O31       5.98695  1_455   S
    Zr27   O32       2.59143      .   S
    N1     O32       6.02834      .   S
    Zr27   O33       2.07637      .   S
    N6     O33       3.09762      .   S
    Zr27   O34       2.59345      .   S
    N8     O34       6.03141      .   S
    Zr27   O35       2.65165      .   S
    N1     O35       5.88021  1_455   S
    Zr27   O36       2.66538      .   S
    N11    O36       5.95466  1_554   S
    Zr27   O37       2.56981      .   S
    N8     O37       5.98898  1_565   S
    Zr27   O38       2.61168      .   S
    N11    O38       6.05015      .   S
    Zr27   O39       2.60931      .   S
    N11    O39       6.04296  1_554   S
    Zr27   O40       2.69032      .   S
    N1     O40       5.90791      .   S
    Zr27   O41       2.68830      .   S
    N8     O41       5.91422      .   S
    Zr42   O43       2.61007      .   S
    N10    O43       6.04431  1_565   S
    Zr42   O44       2.68918      .   S
    N9     O44       5.91540      .   S
    Zr42   O45       2.69143      .   S
    N7     O45       5.90995      .   S
    Zr42   O46       2.61025      .   S
    N10    O46       6.04800      .   S
    Zr42   O47       2.65029      .   S
    N7     O47       5.87801  1_655   S
    Zr42   O48       2.07666      .   S
    N6     O48       3.09810  1_655   S
    Zr42   O49       2.66713      .   S
    N10    O49       5.95566  1_565   S
    Zr42   O50       2.59398      .   S
    N9     O50       6.03273      .   S
    Zr42   O51       2.56894      .   S
    N9     O51       5.98754  1_554   S
    Zr42   O52       2.07352      .   S
    N5     O52       3.09415  1_554   S
    Zr42   O53       2.65037      .   S
    N9     O53       5.88069  1_554   S
    Zr42   O54       2.56732      .   S
    N7     O54       5.98505  1_655   S
    Zr42   O55       2.66948      .   S
    N10    O55       5.95834      .   S
    Zr42   O56       2.59305      .   S
    N7     O56       6.02984      .   S
