# CIF file generated by openbabel 2.4.90, see http://openbabel.sf.net
data_I
_chemical_name_common ''
_cell_length_a 14.277
_cell_length_b 14.864
_cell_length_c 15.152
_cell_angle_alpha 90.015
_cell_angle_beta 90.487
_cell_angle_gamma 90.041
_space_group_name_H-M_alt 'P 1'
_space_group_name_Hall 'P 1'
loop_
    _symmetry_equiv_pos_as_xyz
    x,y,z
loop_
    _atom_site_label
    _atom_site_type_symbol
    _atom_site_fract_x
    _atom_site_fract_y
    _atom_site_fract_z
    _atom_site_occupancy
    Zn0     Zn   0.05764   0.56268   0.90800   1.000
    Zn1     Zn   0.31666   0.31204   0.30055   1.000
    Zn2     Zn   0.44080   0.43754   0.41152   1.000
    Zn3     Zn   0.81877   0.19065   0.70006   1.000
    Zn4     Zn   0.94214   0.06267   0.59190   1.000
    Zn5     Zn   0.68330   0.81212   0.19945   1.000
    Zn6     Zn   0.55919   0.93751   0.08844   1.000
    H7      H    0.90878   0.77320   0.00000   1.000
    H8      H    0.76775   0.01864   0.93682   1.000
    H9      H    0.00000   0.92390   0.78408   1.000
    H10     H    0.59052   0.22684   0.51092   1.000
    H11     H    0.73180   0.98293   0.43571   1.000
    H12     H    0.49615   0.07829   0.28283   1.000
    H13     H    0.09105   0.27319   0.48994   1.000
    H14     H    0.23213   0.51887   0.56294   1.000
    H15     H    0.99882   0.42394   0.71580   1.000
    H16     H    0.40933   0.72665   0.98908   1.000
    H17     H    0.26806   0.48252   0.06416   1.000
    H18     H    0.50387   0.57810   0.21694   1.000
    C19     C    0.96249   0.84106   0.89507   1.000
    C20     C    0.90179   0.83117   0.96655   1.000
    C21     C    0.83212   0.89547   0.98198   1.000
    C22     C    0.82258   0.96932   0.92527   1.000
    C23     C    0.88349   0.97960   0.85403   1.000
    C24     C    0.95377   0.91575   0.83937   1.000
    C25     C    0.03550   0.77150   0.87805   1.000
    C26     C    0.76687   0.88554   0.05768   1.000
    C27     C    0.87347   0.05691   0.79271   1.000
    C28     C    0.53560   0.15991   0.39513   1.000
    C29     C    0.59720   0.16935   0.46696   1.000
    C30     C    0.66749   0.10529   0.48190   1.000
    C31     C    0.67653   0.03209   0.42452   1.000
    Zn32    Zn   0.18113   0.69069   0.79992   1.000
    C33     C    0.61478   0.02237   0.35288   1.000
    C34     C    0.54403   0.08600   0.33855   1.000
    C35     C    0.46215   0.22923   0.37836   1.000
    C36     C    0.73416   0.11503   0.55764   1.000
    C37     C    0.62472   0.94603   0.29059   1.000
    C38     C    0.03740   0.34109   0.60480   1.000
    C39     C    0.09807   0.33121   0.53331   1.000
    C40     C    0.16775   0.39557   0.51785   1.000
    C41     C    0.17729   0.46949   0.57452   1.000
    C42     C    0.11641   0.47976   0.64577   1.000
    C43     C    0.04615   0.41583   0.66049   1.000
    C44     C    0.96441   0.27147   0.62188   1.000
    C45     C    0.23306   0.38560   0.44220   1.000
    C46     C    0.12651   0.55708   0.70709   1.000
    C47     C    0.46436   0.65973   0.10475   1.000
    C48     C    0.40268   0.66912   0.03298   1.000
    C49     C    0.33237   0.60499   0.01801   1.000
    C50     C    0.32336   0.53173   0.07534   1.000
    C51     C    0.38518   0.52207   0.14693   1.000
    C52     C    0.45595   0.58578   0.16126   1.000
    C53     C    0.53781   0.72915   0.12157   1.000
    C54     C    0.26558   0.61473   0.94238   1.000
    C55     C    0.37523   0.44578   0.20925   1.000
    O56     O    0.08977   0.78551   0.81147   1.000
    O57     O    0.04117   0.70365   0.92867   1.000
    O58     O    0.77759   0.81584   0.10745   1.000
    O59     O    0.70483   0.94551   0.07000   1.000
    O60     O    0.80230   0.10965   0.80109   1.000
    O61     O    0.93475   0.07028   0.73319   1.000
    O62     O    0.40729   0.21580   0.31128   1.000
    O63     O    0.45664   0.29653   0.42969   1.000
    O64     O    0.72431   0.18497   0.60713   1.000
    O65     O    0.79617   0.05488   0.56992   1.000
    O66     O    0.69624   0.89357   0.29991   1.000
    O67     O    0.56356   0.93355   0.22995   1.000
    O68     O    0.91023   0.28547   0.68851   1.000
    O69     O    0.95874   0.20356   0.57129   1.000
    O70     O    0.22235   0.31580   0.39251   1.000
    O71     O    0.29518   0.44557   0.42990   1.000
    O72     O    0.19767   0.60990   0.69864   1.000
    O73     O    0.06533   0.57034   0.76673   1.000
    O74     O    0.59262   0.71580   0.18869   1.000
    O75     O    0.54330   0.79646   0.07029   1.000
    O76     O    0.27561   0.68454   0.89270   1.000
    O77     O    0.20326   0.55475   0.93032   1.000
    O78     O    0.30372   0.39321   0.19996   1.000
    O79     O    0.43634   0.43352   0.26996   1.000
loop_
    _geom_bond_atom_site_label_1
    _geom_bond_atom_site_label_2
    _geom_bond_distance
    _geom_bond_site_symmetry_2
    _ccdc_geom_bond_type
    H7     C20       1.00441  1_554   S
    C49    C48       1.40092      .   S
    C49    C50       1.39961      .   S
    C49    C54       1.49173  1_554   S
    C48    C47       1.40051      .   S
    C48    H16       1.08802  1_554   S
    C26    O59       1.27185      .   S
    C26    O58       1.29010      .   S
    C26    C21       1.49109  1_554   S
    H17    C50       1.08804      .   S
    O59    Zn6       2.10367      .   S
    O75    Zn6       2.12609      .   S
    O75    C53       1.26979      .   S
    C50    C51       1.40013      .   S
    Zn6    O67       2.14536      .   S
    C47    C53       1.49101      .   S
    C47    C52       1.39926      .   S
    O58    Zn5       1.94688      .   S
    C53    O74       1.29345      .   S
    C51    C52       1.39973      .   S
    C51    C55       1.48339      .   S
    C52    H18       1.08778      .   S
    O74    Zn5       1.93551      .   S
    Zn5    O66       1.95209      .   S
    O78    C55       1.29194      .   S
    O78    Zn1       1.95177      .   S
    C55    O79       1.27569      .   S
    O67    C37       1.27561      .   S
    O79    Zn2       2.14613      .   S
    H12    C34       1.08782      .   S
    C37    O66       1.29192      .   S
    C37    C33       1.48348  1_565   S
    Zn1    O62       1.93558      .   S
    Zn1    O70       1.94662      .   S
    O62    C35       1.29327      .   S
    C34    C33       1.39976      .   S
    C34    C28       1.39928      .   S
    C33    C31       1.40000      .   S
    C35    C28       1.49094      .   S
    C35    O63       1.26986      .   S
    O70    C45       1.28996      .   S
    C28    C29       1.40044      .   S
    Zn2    O63       2.12599      .   S
    Zn2    O71       2.10329      .   S
    C31    H11       1.08803  1_545   S
    C31    C30       1.39941      .   S
    O71    C45       1.27187      .   S
    C45    C40       1.49118      .   S
    C29    C30       1.40083      .   S
    C29    H10       1.08808      .   S
    C30    C36       1.49170      .   S
    H13    C39       1.08816      .   S
    C40    C39       1.40095      .   S
    C40    C41       1.40016      .   S
    C39    C38       1.40043      .   S
    C36    O65       1.27119      .   S
    C36    O64       1.29019      .   S
    H14    C41       1.08814      .   S
    O65    Zn4       2.11077      .   S
    O69    Zn4       2.13086      .   S
    O69    C44       1.26948      .   S
    C41    C42       1.40013      .   S
    Zn4    O61       2.14728      .   S
    C38    C44       1.49232  1_455   S
    C38    C43       1.39964      .   S
    O64    Zn3       1.94311      .   S
    C44    O68       1.29393      .   S
    C42    C43       1.40050      .   S
    C42    C46       1.48392      .   S
    C43    H15       1.08777  1_455   S
    O68    Zn3       1.92972      .   S
    O72    C46       1.29077      .   S
    O72    Zn32      1.96436      .   S
    Zn3    O60       1.96333      .   S
    C46    O73       1.27745      .   S
    O61    C27       1.27729      .   S
    O73    Zn0       2.14732      .   S
    H9     C24       1.07773  1_455   S
    C27    O60       1.29086      .   S
    C27    C23       1.48425  1_545   S
    Zn32   O56       1.92999      .   S
    Zn32   O76       1.94225      .   S
    O56    C25       1.29399      .   S
    C24    C23       1.40064      .   S
    C24    C19       1.39973      .   S
    C23    C22       1.40020      .   S
    C25    C19       1.49264  1_455   S
    C25    O57       1.26950      .   S
    O76    C54       1.29070      .   S
    C19    C20       1.40052      .   S
    Zn0    O57       2.13205      .   S
    Zn0    O77       2.10684      .   S
    C22    H8        1.08814  1_565   S
    C22    C21       1.40022      .   S
    O77    C54       1.27123      .   S
    C20    C21       1.40103      .   S
