# CIF file generated by openbabel 2.4.90, see http://openbabel.sf.net
data_I
_chemical_name_common ''
_cell_length_a 14.277
_cell_length_b 14.864
_cell_length_c 15.152
_cell_angle_alpha 90.015
_cell_angle_beta 90.487
_cell_angle_gamma 90.041
_space_group_name_H-M_alt 'P 1'
_space_group_name_Hall 'P 1'
loop_
    _symmetry_equiv_pos_as_xyz
    x,y,z
loop_
    _atom_site_label
    _atom_site_type_symbol
    _atom_site_fract_x
    _atom_site_fract_y
    _atom_site_fract_z
    _atom_site_occupancy
    N0      N    0.89217   0.90514   0.90908   1.000
    N1      N    0.60663   0.09626   0.40910   1.000
    N2      N    0.10770   0.40521   0.59023   1.000
    N3      N    0.39326   0.59604   0.09081   1.000
    Zr4     Zr   0.05764   0.56268   0.90800   1.000
    O5      O    0.07112   0.52427   0.81090   1.000
    O6      O    0.01421   0.66591   0.91085   1.000
    O7      O    0.15975   0.57002   0.95649   1.000
    Zr8     Zr   0.31666   0.31204   0.30055   1.000
    O9      O    0.33419   0.39318   0.23554   1.000
    O10     O    0.40048   0.24606   0.32903   1.000
    O11     O    0.25263   0.33580   0.38447   1.000
    Zr12    Zr   0.44080   0.43754   0.41152   1.000
    O13     O    0.42835   0.47666   0.31365   1.000
    O14     O    0.48423   0.33459   0.41319   1.000
    O15     O    0.33932   0.43046   0.45850   1.000
    Zr16    Zr   0.81877   0.19065   0.70006   1.000
    O17     O    0.83506   0.10914   0.76494   1.000
    O18     O    0.75393   0.16634   0.61570   1.000
    O19     O    0.90243   0.25614   0.67116   1.000
    Zr20    Zr   0.94214   0.06267   0.59190   1.000
    O21     O    0.92872   0.02423   0.68886   1.000
    O22     O    0.84002   0.07009   0.54345   1.000
    O23     O    0.98560   0.16591   0.58891   1.000
    Zr24    Zr   0.68330   0.81212   0.19945   1.000
    O25     O    0.74730   0.83584   0.11536   1.000
    O26     O    0.59945   0.74606   0.17094   1.000
    O27     O    0.66575   0.89334   0.26442   1.000
    Zr28    Zr   0.55919   0.93751   0.08844   1.000
    O29     O    0.66064   0.93042   0.04130   1.000
    O30     O    0.51572   0.83451   0.08676   1.000
    O31     O    0.57160   0.97670   0.18629   1.000
    Zr32    Zr   0.18113   0.69069   0.79992   1.000
    O33     O    0.09747   0.75616   0.82865   1.000
    O34     O    0.24597   0.66626   0.88424   1.000
    O35     O    0.16484   0.60922   0.73484   1.000
loop_
    _geom_bond_atom_site_label_1
    _geom_bond_atom_site_label_2
    _geom_bond_distance
    _geom_bond_site_symmetry_2
    _ccdc_geom_bond_type
    Zr4    O5        1.59127      .   S
    N2     O5        3.82254      .   S
    Zr4    O6        1.65614      .   S
    N0     O6        3.96094  1_655   S
    Zr4    O7        1.63046      .   S
    N3     O7        3.91002  1_554   S
    Zr8    O9        1.57864      .   S
    N3     O9        3.82660      .   S
    Zr8    O10       1.60412      .   S
    N1     O10       3.87851      .   S
    Zr8    O11       1.61154      .   S
    N2     O11       3.89582      .   S
    Zr12   O13       1.60157      .   S
    N3     O13       3.84391      .   S
    Zr12   O14       1.65161      .   S
    N1     O14       3.95192      .   S
    Zr12   O15       1.62296      .   S
    N2     O15       3.89505      .   S
    Zr16   O17       1.57650      .   S
    N0     O17       3.82183  1_565   S
    Zr16   O18       1.61255      .   S
    N1     O18       3.89745      .   S
    Zr16   O19       1.60429      .   S
    N2     O19       3.88004  1_455   S
    Zr20   O21       1.58943      .   S
    N0     O21       3.81735  1_565   S
    Zr20   O22       1.63063      .   S
    N1     O22       3.90958      .   S
    Zr20   O23       1.65574      .   S
    N2     O23       3.95989  1_455   S
    Zr24   O25       1.61318      .   S
    N0     O25       3.90075  1_556   S
    Zr24   O26       1.60407      .   S
    N3     O26       3.87839      .   S
    Zr24   O27       1.57897      .   S
    N1     O27       3.82718  1_545   S
    Zr28   O29       1.62389      .   S
    N0     O29       3.89807  1_556   S
    Zr28   O30       1.65168      .   S
    N3     O30       3.95203      .   S
    Zr28   O31       1.60127      .   S
    N1     O31       3.84351  1_545   S
    Zr32   O33       1.60416      .   S
    N0     O33       3.87927  1_655   S
    Zr32   O34       1.61302      .   S
    N3     O34       3.89882  1_554   S
    Zr32   O35       1.57737      .   S
    N2     O35       3.82425      .   S
