# CIF file generated by openbabel 2.4.90, see http://openbabel.sf.net
data_I
_chemical_name_common ''
_cell_length_a 14.277
_cell_length_b 14.864
_cell_length_c 15.152
_cell_angle_alpha 90.015
_cell_angle_beta 90.487
_cell_angle_gamma 90.041
_space_group_name_H-M_alt 'P 1'
_space_group_name_Hall 'P 1'
loop_
    _symmetry_equiv_pos_as_xyz
    x,y,z
loop_
    _atom_site_label
    _atom_site_type_symbol
    _atom_site_fract_x
    _atom_site_fract_y
    _atom_site_fract_z
    _atom_site_occupancy
    Zr0     Zr   0.18113   0.69069   0.79992   1.000
    Zr1     Zr   0.05764   0.56268   0.90800   1.000
    Zr2     Zr   0.31666   0.31204   0.30055   1.000
    Zr3     Zr   0.44080   0.43754   0.41152   1.000
    Zr4     Zr   0.81877   0.19065   0.70006   1.000
    Zr5     Zr   0.94214   0.06267   0.59190   1.000
    Zr6     Zr   0.68330   0.81212   0.19945   1.000
    Zr7     Zr   0.55919   0.93751   0.08844   1.000
    N8      N    0.89217   0.90514   0.90908   1.000
    O9      O    0.01381   0.82162   0.85739   1.000
    O10     O    0.97079   0.76915   0.91371   1.000
    O11     O    0.81131   0.85956   0.03127   1.000
    O12     O    0.76209   0.92332   0.99415   1.000
    O13     O    0.85135   0.02764   0.82983   1.000
    O14     O    0.91531   0.98580   0.78581   1.000
    N15     N    0.60663   0.09626   0.40910   1.000
    O16     O    0.48430   0.18009   0.35751   1.000
    O17     O    0.52767   0.23164   0.41485   1.000
    O18     O    0.68909   0.14203   0.53135   1.000
    O19     O    0.73789   0.07752   0.49501   1.000
    O20     O    0.64820   0.97455   0.32939   1.000
    O21     O    0.58400   0.01589   0.28415   1.000
    N22     N    0.10770   0.40521   0.59023   1.000
    O23     O    0.98610   0.32163   0.64226   1.000
    O24     O    0.02907   0.26916   0.58591   1.000
    O25     O    0.18860   0.35956   0.46838   1.000
    O26     O    0.23784   0.42338   0.50547   1.000
    O27     O    0.14855   0.52775   0.66976   1.000
    O28     O    0.08459   0.48586   0.71380   1.000
    N29     N    0.39326   0.59604   0.09081   1.000
    O30     O    0.51561   0.68000   0.14244   1.000
    O31     O    0.47225   0.73151   0.08509   1.000
    O32     O    0.31081   0.64183   0.96856   1.000
    O33     O    0.26185   0.57737   0.00498   1.000
    O34     O    0.35172   0.47433   0.17053   1.000
    O35     O    0.41591   0.51578   0.21577   1.000
loop_
    _geom_bond_atom_site_label_1
    _geom_bond_atom_site_label_2
    _geom_bond_distance
    _geom_bond_site_symmetry_2
    _ccdc_geom_bond_type
    N8     O9        2.27953  1_655   S
    Zr0    O9        3.20832      .   S
    N8     O10       2.31356      .   S
    Zr1    O10       3.31228  1_455   S
    N8     O11       2.29240  1_556   S
    Zr6    O11       3.22635      .   S
    N8     O12       2.28576      .   S
    Zr7    O12       3.24779  1_554   S
    N8     O13       2.25568  1_565   S
    Zr4    O13       3.15299      .   S
    N8     O14       2.24642      .   S
    Zr5    O14       3.17886  1_545   S
    N15    O16       2.27912      .   S
    Zr2    O16       3.20824      .   S
    N15    O17       2.30929      .   S
    Zr3    O17       3.30322      .   S
    N15    O18       2.28927      .   S
    Zr4    O18       3.22510      .   S
    N15    O19       2.28981      .   S
    Zr5    O19       3.26126      .   S
    N15    O20       2.25746  1_545   S
    Zr6    O20       3.15794      .   S
    N15    O21       2.25915      .   S
    Zr7    O21       3.20254  1_565   S
    N22    O23       2.28020  1_455   S
    Zr4    O23       3.20858      .   S
    N22    O24       2.31284      .   S
    Zr5    O24       3.31149  1_655   S
    N22    O25       2.28909      .   S
    Zr2    O25       3.22307      .   S
    N22    O26       2.28363      .   S
    Zr3    O26       3.24591      .   S
    N22    O27       2.25727      .   S
    Zr0    O27       3.15474      .   S
    N22    O28       2.24971      .   S
    Zr1    O28       3.18254      .   S
    N29    O30       2.27905      .   S
    Zr6    O30       3.20813      .   S
    N29    O31       2.30933      .   S
    Zr7    O31       3.30335      .   S
    N29    O32       2.29010  1_554   S
    Zr0    O32       3.22605      .   S
    N29    O33       2.29025      .   S
    Zr1    O33       3.26093  1_556   S
    N29    O34       2.25725      .   S
    Zr2    O34       3.15728      .   S
    N29    O35       2.25925      .   S
    Zr3    O35       3.20314      .   S
