# CIF file generated by openbabel 2.4.90, see http://openbabel.sf.net
data_I
_chemical_name_common ''
_cell_length_a 18.577
_cell_length_b 18.583
_cell_length_c 18.583
_cell_angle_alpha 90.001
_cell_angle_beta 90
_cell_angle_gamma 90
_space_group_name_H-M_alt 'P 1'
_space_group_name_Hall 'P 1'
loop_
    _symmetry_equiv_pos_as_xyz
    x,y,z
loop_
    _atom_site_label
    _atom_site_type_symbol
    _atom_site_fract_x
    _atom_site_fract_y
    _atom_site_fract_z
    _atom_site_occupancy
    Ni0     Ni   0.00001   0.37563   0.49997   1.000
    Ni1     Ni   0.50002   0.00002   0.62435   1.000
    Ni2     Ni   0.50002   0.99997   0.37558   1.000
    Ni3     Ni   0.62436   0.49996   0.99998   1.000
    Ni4     Ni   0.37567   0.50001   0.00000   1.000
    Ni5     Ni   0.62433   0.99997   0.49997   1.000
    Ni6     Ni   0.37573   0.00001   0.49999   1.000
    Ni7     Ni   0.00002   0.49997   0.37573   1.000
    Ni8     Ni   0.00001   0.49999   0.62424   1.000
    Ni9     Ni   0.50001   0.62433   0.00000   1.000
    Ni10    Ni   0.50000   0.37567   0.99998   1.000
    Ni11    Ni   0.00000   0.62432   0.50001   1.000
