# CIF file generated by openbabel 2.4.90, see http://openbabel.sf.net
data_I
_chemical_name_common ''
_cell_length_a 11.272
_cell_length_b 24.217
_cell_length_c 23.214
_cell_angle_alpha 98.079
_cell_angle_beta 90.007
_cell_angle_gamma 89.999
_space_group_name_H-M_alt 'P 1'
_space_group_name_Hall 'P 1'
loop_
    _symmetry_equiv_pos_as_xyz
    x,y,z
loop_
    _atom_site_label
    _atom_site_type_symbol
    _atom_site_fract_x
    _atom_site_fract_y
    _atom_site_fract_z
    _atom_site_occupancy
    Ca0     Ca   0.14597   0.94699   0.45459   1.000
    Ca1     Ca   0.64597   0.44700   0.45459   1.000
    Ca2     Ca   0.64597   0.94699   0.45459   1.000
    Ca3     Ca   0.39598   0.30299   0.04540   1.000
    Ca4     Ca   0.39598   0.80299   0.04540   1.000
    Ca5     Ca   0.89598   0.30299   0.04540   1.000
    Ca6     Ca   0.89598   0.80299   0.04540   1.000
    Ca7     Ca   0.35402   0.05301   0.54538   1.000
    Ca8     Ca   0.35402   0.55300   0.54538   1.000
    Ca9     Ca   0.85402   0.05301   0.54538   1.000
    Ca10    Ca   0.85403   0.55300   0.54538   1.000
    Ca11    Ca   0.10401   0.19701   0.95458   1.000
    Ca12    Ca   0.10402   0.69701   0.95458   1.000
    Ca13    Ca   0.60401   0.19701   0.95458   1.000
    Ca14    Ca   0.60402   0.69701   0.95458   1.000
    H15     H    0.02757   0.32662   0.52592   1.000
    H16     H    0.02758   0.82662   0.52592   1.000
    H17     H    0.52757   0.32662   0.52592   1.000
    H18     H    0.52758   0.82662   0.52592   1.000
    H19     H    0.18711   0.39255   0.58279   1.000
    H20     H    0.18711   0.89255   0.58279   1.000
    H21     H    0.68711   0.39255   0.58279   1.000
    H22     H    0.68711   0.89255   0.58279   1.000
    H23     H    0.47586   0.23513   0.55794   1.000
    H24     H    0.47587   0.73512   0.55794   1.000
    H25     H    0.97586   0.23513   0.55794   1.000
    H26     H    0.97587   0.73512   0.55794   1.000
    H27     H    0.13408   0.30175   0.61494   1.000
    H28     H    0.13408   0.80174   0.61494   1.000
    H29     H    0.63408   0.30175   0.61494   1.000
    H30     H    0.63409   0.80174   0.61494   1.000
    H31     H    0.46507   0.15999   0.66603   1.000
    Ca32    Ca   0.14597   0.44700   0.45459   1.000
    H33     H    0.46507   0.65998   0.66600   1.000
    H34     H    0.96507   0.15999   0.66600   1.000
    H35     H    0.96507   0.65998   0.66600   1.000
    H36     H    0.12379   0.23641   0.70710   1.000
    H37     H    0.12380   0.73641   0.70709   1.000
    H38     H    0.62380   0.23641   0.70710   1.000
    H39     H    0.62380   0.73641   0.70700   1.000
    H40     H    0.00403   0.16177   0.77260   1.000
    H41     H    0.00403   0.66176   0.77260   1.000
    H42     H    0.50403   0.16177   0.77260   1.000
    H43     H    0.50403   0.66176   0.77260   1.000
    H44     H    0.16198   0.23519   0.81276   1.000
    H45     H    0.16198   0.73518   0.81276   1.000
    H46     H    0.66198   0.23519   0.81276   1.000
    H47     H    0.66199   0.73518   0.81276   1.000
    H48     H    0.27760   0.42337   0.97402   1.000
    H49     H    0.27760   0.92337   0.97402   1.000
    H50     H    0.77760   0.42337   0.97402   1.000
    H51     H    0.77760   0.92337   0.97402   1.000
    H52     H    0.43701   0.35750   0.91723   1.000
    H53     H    0.43702   0.85750   0.91723   1.000
    H54     H    0.93701   0.35750   0.91720   1.000
    H55     H    0.93702   0.85750   0.91723   1.000
    H56     H    0.22594   0.01487   0.94198   1.000
    H57     H    0.22594   0.51486   0.94198   1.000
    H58     H    0.72594   0.01487   0.94198   1.000
    H59     H    0.72594   0.51486   0.94198   1.000
    H60     H    0.38403   0.44831   0.88507   1.000
    H61     H    0.38403   0.94830   0.88507   1.000
    H62     H    0.88403   0.44831   0.88507   1.000
    H63     H    0.88403   0.94830   0.88507   1.000
    H64     H    0.21507   0.09005   0.83394   1.000
    H65     H    0.21508   0.59004   0.83394   1.000
    H66     H    0.71508   0.09005   0.83394   1.000
    H67     H    0.71508   0.59004   0.83394   1.000
    H68     H    0.37387   0.01356   0.79281   1.000
    H69     H    0.37388   0.51355   0.79281   1.000
    H70     H    0.87387   0.01356   0.79281   1.000
    H71     H    0.87388   0.51355   0.79281   1.000
    H72     H    0.25407   0.08827   0.72738   1.000
    H73     H    0.25407   0.58826   0.72738   1.000
    H74     H    0.75407   0.08827   0.72738   1.000
    H75     H    0.75407   0.58826   0.72738   1.000
    H76     H    0.41209   0.01479   0.68716   1.000
    H77     H    0.41210   0.51478   0.68716   1.000
    H78     H    0.91209   0.01479   0.68716   1.000
    H79     H    0.91210   0.51478   0.68716   1.000
    H80     H    0.47242   0.17338   0.47405   1.000
    H81     H    0.47243   0.67338   0.47400   1.000
    H82     H    0.97242   0.17338   0.47400   1.000
    H83     H    0.97243   0.67338   0.47400   1.000
    H84     H    0.31289   0.10745   0.41718   1.000
    H85     H    0.31289   0.60745   0.41718   1.000
    H86     H    0.81288   0.10745   0.41718   1.000
    H87     H    0.81289   0.60745   0.41718   1.000
    H88     H    0.02413   0.26488   0.44200   1.000
    H89     H    0.02414   0.76487   0.44202   1.000
    H90     H    0.52413   0.26488   0.44200   1.000
    H91     H    0.52414   0.76487   0.44202   1.000
    H92     H    0.36592   0.19825   0.38503   1.000
    H93     H    0.36592   0.69825   0.38503   1.000
    H94     H    0.86592   0.19825   0.38503   1.000
    H95     H    0.86592   0.69825   0.38503   1.000
    H96     H    0.03493   0.34002   0.33394   1.000
    H97     H    0.03494   0.84001   0.33394   1.000
    H98     H    0.53493   0.34002   0.33394   1.000
    H99     H    0.53494   0.84001   0.33394   1.000
    C100    C    0.85723   0.69773   0.86343   1.000
    C101    C    0.14627   0.33078   0.96791   1.000
    C102    C    0.14627   0.83078   0.96790   1.000
    C103    C    0.64628   0.33078   0.96791   1.000
    H104    H    0.37620   0.26359   0.29280   1.000
    H105    H    0.37621   0.76359   0.29287   1.000
    H106    H    0.87621   0.26359   0.29280   1.000
    H107    H    0.87621   0.76359   0.29287   1.000
    H108    H    0.49597   0.33824   0.22737   1.000
    H109    H    0.49597   0.83823   0.22737   1.000
    H110    H    0.99597   0.33824   0.22737   1.000
    H111    H    0.99597   0.83824   0.22737   1.000
    H112    H    0.33802   0.26482   0.18721   1.000
    H113    H    0.33802   0.76482   0.18721   1.000
    H114    H    0.83802   0.26482   0.18721   1.000
    H115    H    0.83802   0.76482   0.18721   1.000
    H116    H    0.22240   0.07663   0.02594   1.000
    H117    H    0.22241   0.57663   0.02594   1.000
    H118    H    0.72241   0.07663   0.02594   1.000
    H119    H    0.72241   0.57663   0.02594   1.000
    H120    H    0.06299   0.14250   0.08273   1.000
    H121    H    0.06299   0.64250   0.08273   1.000
    H122    H    0.56299   0.14250   0.08273   1.000
    H123    H    0.56299   0.64250   0.08273   1.000
    H124    H    0.27407   0.48514   0.05799   1.000
    H125    H    0.27407   0.98513   0.05799   1.000
    H126    H    0.77407   0.48514   0.05799   1.000
    H127    H    0.77407   0.98513   0.05799   1.000
    H128    H    0.11597   0.05170   0.11490   1.000
    H129    H    0.11597   0.55169   0.11400   1.000
    H130    H    0.61597   0.05170   0.11490   1.000
    H131    H    0.61598   0.55169   0.11400   1.000
    C132    C    0.10369   0.08077   0.46791   1.000
    C133    C    0.10369   0.58077   0.46790   1.000
    C134    C    0.60369   0.08077   0.46791   1.000
    C135    C    0.60369   0.58077   0.46791   1.000
    C136    C    0.13870   0.13501   0.44766   1.000
    H137    H    0.28492   0.40996   0.16603   1.000
    H138    H    0.28493   0.90995   0.16603   1.000
    H139    H    0.78492   0.40996   0.16603   1.000
    H140    H    0.78493   0.90995   0.16603   1.000
    H141    H    0.12612   0.48645   0.20716   1.000
    H142    H    0.12613   0.98645   0.20716   1.000
    H143    H    0.62612   0.48645   0.20716   1.000
    H144    H    0.62613   0.98645   0.20716   1.000
    H145    H    0.24593   0.41174   0.27259   1.000
    H146    H    0.24593   0.91173   0.27250   1.000
    H147    H    0.74593   0.41174   0.27259   1.000
    H148    H    0.74593   0.91173   0.27250   1.000
    H149    H    0.08790   0.48522   0.31281   1.000
    H150    H    0.08791   0.98521   0.31281   1.000
    H151    H    0.58790   0.48522   0.31281   1.000
    H152    H    0.58791   0.98521   0.31281   1.000
    C153    C    0.39630   0.41923   0.53206   1.000
    C154    C    0.39630   0.91923   0.53206   1.000
    C155    C    0.89630   0.41923   0.53206   1.000
    C156    C    0.89630   0.91923   0.53207   1.000
    C157    C    0.36130   0.36499   0.55231   1.000
    C158    C    0.36130   0.86498   0.55231   1.000
    C159    C    0.86130   0.36499   0.55231   1.000
    C160    C    0.86130   0.86498   0.55231   1.000
    C161    C    0.44199   0.32059   0.54571   1.000
    C162    C    0.44200   0.82059   0.54571   1.000
    C163    C    0.94199   0.32059   0.54571   1.000
    C164    C    0.94200   0.82059   0.54570   1.000
    C165    C    0.25042   0.35820   0.57782   1.000
    C166    C    0.25042   0.85819   0.57782   1.000
    C167    C    0.75042   0.35819   0.57782   1.000
    C168    C    0.75042   0.85819   0.57782   1.000
    C169    C    0.41305   0.26954   0.56307   1.000
    C170    C    0.41306   0.76953   0.56307   1.000
    C171    C    0.91306   0.26954   0.56307   1.000
    C172    C    0.91307   0.76953   0.56307   1.000
    C173    C    0.22052   0.30737   0.59570   1.000
    C174    C    0.22053   0.80737   0.59578   1.000
    C175    C    0.72053   0.30737   0.59578   1.000
    C176    C    0.72053   0.80737   0.59578   1.000
    C177    C    0.30145   0.26314   0.58749   1.000
    C178    C    0.30146   0.76313   0.58749   1.000
    C179    C    0.80146   0.26314   0.58749   1.000
    C180    C    0.80146   0.76313   0.58740   1.000
    C181    C    0.29303   0.19889   0.68089   1.000
    C182    C    0.29304   0.69889   0.68089   1.000
    C183    C    0.79303   0.19890   0.68089   1.000
    C184    C    0.79304   0.69889   0.68089   1.000
    C185    C    0.40041   0.17753   0.69837   1.000
    C186    C    0.40041   0.67752   0.69837   1.000
    C187    C    0.90040   0.17753   0.69837   1.000
    C188    C    0.90041   0.67752   0.69837   1.000
    C189    C    0.20756   0.22079   0.72161   1.000
    C190    C    0.20756   0.72078   0.72160   1.000
    C191    C    0.70756   0.22079   0.72161   1.000
    C192    C    0.70757   0.72078   0.72160   1.000
    C193    C    0.42153   0.17837   0.75775   1.000
    C194    C    0.42154   0.67837   0.75775   1.000
    C195    C    0.92154   0.17837   0.75775   1.000
    C196    C    0.92154   0.67837   0.75775   1.000
    C197    C    0.22915   0.22033   0.78054   1.000
    C198    C    0.22916   0.72033   0.78054   1.000
    C199    C    0.72916   0.22033   0.78054   1.000
    C200    C    0.72916   0.72032   0.78054   1.000
    C201    C    0.33633   0.19930   0.79914   1.000
    C202    C    0.33634   0.69929   0.79914   1.000
    C203    C    0.83634   0.19930   0.79914   1.000
    C204    C    0.83634   0.69929   0.79914   1.000
    C205    C    0.35722   0.19774   0.86343   1.000
    C206    C    0.35723   0.69773   0.86343   1.000
    C207    C    0.85723   0.19774   0.86343   1.000
    O208    O    0.26558   0.69919   0.89527   1.000
    O209    O    0.76558   0.19920   0.89527   1.000
    O210    O    0.76558   0.69919   0.89527   1.000
    O211    O    0.46398   0.19462   0.87998   1.000
    O212    O    0.46398   0.69462   0.87998   1.000
    O213    O    0.96398   0.19462   0.87998   1.000
    O214    O    0.96398   0.69462   0.87998   1.000
    O215    O    0.31252   0.45381   0.52468   1.000
    C216    C    0.64628   0.83078   0.96790   1.000
    C217    C    0.11126   0.38503   0.94767   1.000
    C218    C    0.11127   0.88503   0.94760   1.000
    C219    C    0.61126   0.38503   0.94767   1.000
    C220    C    0.61126   0.88503   0.94768   1.000
    C221    C    0.19200   0.42941   0.95425   1.000
    C222    C    0.19200   0.92941   0.95425   1.000
    C223    C    0.69200   0.42941   0.95425   1.000
    C224    C    0.69200   0.92941   0.95425   1.000
    C225    C    0.50036   0.39184   0.92218   1.000
    C226    C    0.50036   0.89184   0.92218   1.000
    C227    C    0.00000   0.39184   0.92218   1.000
    C228    C    0.00000   0.89184   0.92218   1.000
    C229    C    0.16310   0.48047   0.93687   1.000
    C230    C    0.16310   0.98046   0.93687   1.000
    C231    C    0.66310   0.48047   0.93687   1.000
    C232    C    0.66310   0.98046   0.93687   1.000
    C233    C    0.47050   0.44266   0.90421   1.000
    C234    C    0.47050   0.94266   0.90421   1.000
    C235    C    0.97050   0.44266   0.90421   1.000
    C236    C    0.97050   0.94266   0.90421   1.000
    C237    C    0.05147   0.48688   0.91247   1.000
    C238    C    0.05147   0.98688   0.91247   1.000
    C239    C    0.55147   0.48688   0.91247   1.000
    C240    C    0.55147   0.98688   0.91247   1.000
    C241    C    0.04306   0.05112   0.81900   1.000
    C242    C    0.04307   0.55111   0.81900   1.000
    C243    C    0.54307   0.05112   0.81900   1.000
    C244    C    0.54307   0.55111   0.81900   1.000
    C245    C    0.15043   0.07250   0.80159   1.000
    C246    C    0.15043   0.57249   0.80159   1.000
    C247    C    0.65043   0.07250   0.80159   1.000
    C248    C    0.65043   0.57249   0.80159   1.000
    C249    C    0.45763   0.02920   0.77832   1.000
    C250    C    0.45763   0.52920   0.77832   1.000
    C251    C    0.95763   0.02920   0.77832   1.000
    C252    C    0.95763   0.52920   0.77832   1.000
    C253    C    0.17158   0.07166   0.74222   1.000
    C254    C    0.17158   0.57165   0.74222   1.000
    C255    C    0.67158   0.07166   0.74222   1.000
    C256    C    0.67158   0.57165   0.74222   1.000
    C257    C    0.47924   0.02966   0.71939   1.000
    C258    C    0.47924   0.52966   0.71939   1.000
    C259    C    0.97924   0.02966   0.71939   1.000
    C260    C    0.97924   0.52966   0.71939   1.000
    C261    C    0.08640   0.05072   0.70082   1.000
    C262    C    0.08640   0.55071   0.70082   1.000
    C263    C    0.58640   0.05072   0.70082   1.000
    C264    C    0.58640   0.55071   0.70082   1.000
    C265    C    0.10727   0.05227   0.63653   1.000
    C266    C    0.10727   0.55227   0.63653   1.000
    C267    C    0.60727   0.05227   0.63653   1.000
    C268    C    0.60727   0.55227   0.63653   1.000
    C269    C    0.13870   0.63501   0.44765   1.000
    C270    C    0.63870   0.13502   0.44766   1.000
    C271    C    0.63870   0.63501   0.44765   1.000
    C272    C    0.05800   0.17941   0.45426   1.000
    C273    C    0.05801   0.67941   0.45426   1.000
    C274    C    0.55800   0.17941   0.45426   1.000
    C275    C    0.55801   0.67941   0.45426   1.000
    C276    C    0.24958   0.14181   0.42215   1.000
    C277    C    0.24958   0.64180   0.42215   1.000
    C278    C    0.74958   0.14181   0.42215   1.000
    C279    C    0.74958   0.64180   0.42215   1.000
    C280    C    0.08694   0.23047   0.43690   1.000
    C281    C    0.08695   0.73046   0.43690   1.000
    C282    C    0.58694   0.23047   0.43690   1.000
    C283    C    0.58695   0.73046   0.43690   1.000
    C284    C    0.27947   0.19263   0.40419   1.000
    C285    C    0.27948   0.69262   0.40419   1.000
    C286    C    0.77947   0.19263   0.40419   1.000
    C287    C    0.77948   0.69262   0.40419   1.000
    C288    C    0.19854   0.23687   0.41248   1.000
    C289    C    0.19855   0.73686   0.41248   1.000
    C290    C    0.69854   0.23687   0.41248   1.000
    C291    C    0.69855   0.73686   0.41248   1.000
    C292    C    0.20697   0.30111   0.31908   1.000
    C293    C    0.20697   0.80111   0.31908   1.000
    C294    C    0.70697   0.30111   0.31908   1.000
    C295    C    0.70698   0.80111   0.31908   1.000
    C296    C    0.09959   0.32248   0.30160   1.000
    C297    C    0.09960   0.82247   0.30160   1.000
    C298    C    0.59960   0.32248   0.30160   1.000
    C299    C    0.59960   0.82247   0.30160   1.000
    C300    C    0.29244   0.27922   0.27830   1.000
    C301    C    0.29244   0.77921   0.27836   1.000
    C302    C    0.79244   0.27922   0.27830   1.000
    C303    C    0.79244   0.77921   0.27836   1.000
    C304    C    0.07846   0.32164   0.24220   1.000
    C305    C    0.07847   0.82163   0.24220   1.000
    C306    C    0.57846   0.32164   0.24220   1.000
    C307    C    0.57847   0.82163   0.24220   1.000
    C308    C    0.27084   0.27968   0.21943   1.000
    C309    C    0.27085   0.77967   0.21943   1.000
    C310    C    0.77084   0.27968   0.21943   1.000
    C311    C    0.77085   0.77967   0.21943   1.000
    C312    C    0.16366   0.30071   0.20083   1.000
    C313    C    0.16367   0.80071   0.20083   1.000
    C314    C    0.66366   0.30071   0.20083   1.000
    C315    C    0.66367   0.80071   0.20083   1.000
    C316    C    0.14277   0.30227   0.13650   1.000
    C317    C    0.14277   0.80226   0.13650   1.000
    C318    C    0.64277   0.30227   0.13655   1.000
    C319    C    0.64277   0.80226   0.13650   1.000
    C320    C    0.35372   0.16922   0.03207   1.000
    C321    C    0.35372   0.66922   0.03207   1.000
    C322    C    0.85372   0.16922   0.03207   1.000
    C323    C    0.85372   0.66922   0.03207   1.000
    C324    C    0.38874   0.11497   0.05229   1.000
    C325    C    0.38874   0.61497   0.05229   1.000
    C326    C    0.88874   0.11497   0.05229   1.000
    C327    C    0.88874   0.61497   0.05229   1.000
    C328    C    0.30800   0.07059   0.04572   1.000
    C329    C    0.30800   0.57059   0.04572   1.000
    C330    C    0.80800   0.07059   0.04572   1.000
    C331    C    0.80800   0.57059   0.04572   1.000
    C332    C    0.99964   0.10816   0.07779   1.000
    C333    C    0.99964   0.60816   0.07779   1.000
    C334    C    0.49964   0.10816   0.07779   1.000
    C335    C    0.49964   0.60816   0.07779   1.000
    C336    C    0.33691   0.01954   0.06310   1.000
    C337    C    0.33691   0.51953   0.06300   1.000
    C338    C    0.83691   0.01954   0.06310   1.000
    C339    C    0.83691   0.51953   0.06310   1.000
    C340    C    0.02950   0.05734   0.09576   1.000
    C341    C    0.02951   0.55734   0.09576   1.000
    C342    C    0.52950   0.05734   0.09576   1.000
    C343    C    0.52951   0.55734   0.09570   1.000
    C344    C    0.44853   0.01312   0.08700   1.000
    C345    C    0.44853   0.51312   0.08749   1.000
    C346    C    0.94853   0.01312   0.08700   1.000
    C347    C    0.94853   0.51312   0.08749   1.000
    C348    C    0.45693   0.44889   0.18092   1.000
    C349    C    0.45693   0.94889   0.18092   1.000
    C350    C    0.95693   0.44889   0.18092   1.000
    C351    C    0.95693   0.94889   0.18092   1.000
    C352    C    0.34957   0.42751   0.19838   1.000
    C353    C    0.34957   0.92750   0.19838   1.000
    C354    C    0.84957   0.42751   0.19838   1.000
    C355    C    0.84957   0.92750   0.19838   1.000
    C356    C    0.04237   0.47081   0.22165   1.000
    C357    C    0.04237   0.97080   0.22165   1.000
    C358    C    0.54237   0.47080   0.22165   1.000
    C359    C    0.54237   0.97080   0.22165   1.000
    C360    C    0.32842   0.42835   0.25775   1.000
    C361    C    0.32842   0.92834   0.25775   1.000
    C362    C    0.82842   0.42835   0.25775   1.000
    C363    C    0.82842   0.92834   0.25775   1.000
    C364    C    0.02076   0.47035   0.28058   1.000
    C365    C    0.02076   0.97034   0.28058   1.000
    C366    C    0.52076   0.47035   0.28058   1.000
    C367    C    0.52076   0.97034   0.28058   1.000
    C368    C    0.41359   0.44929   0.29910   1.000
    C369    C    0.41360   0.94928   0.29910   1.000
    C370    C    0.91360   0.44929   0.29910   1.000
    C371    C    0.91360   0.94928   0.29910   1.000
    C372    C    0.39272   0.44773   0.36344   1.000
    C373    C    0.39273   0.94773   0.36344   1.000
    C374    C    0.89273   0.44773   0.36344   1.000
    C375    C    0.89273   0.94773   0.36344   1.000
    S376    S    0.25911   0.19692   0.60590   1.000
    S377    S    0.25912   0.69692   0.60590   1.000
    S378    S    0.75911   0.19692   0.60590   1.000
    S379    S    0.75912   0.69692   0.60593   1.000
    S380    S    0.00914   0.05310   0.89401   1.000
    S381    S    0.00914   0.55309   0.89401   1.000
    S382    S    0.50914   0.05310   0.89401   1.000
    S383    S    0.50914   0.55309   0.89401   1.000
    S384    S    0.24088   0.30308   0.39404   1.000
    S385    S    0.24089   0.80308   0.39400   1.000
    S386    S    0.74089   0.30308   0.39404   1.000
    S387    S    0.74089   0.80308   0.39400   1.000
    S388    S    0.49086   0.44691   0.10596   1.000
    S389    S    0.49086   0.94691   0.10596   1.000
    S390    S    0.99086   0.44691   0.10596   1.000
    S391    S    0.99086   0.94691   0.10596   1.000
    O392    O    0.50509   0.42815   0.52474   1.000
    O393    O    0.50509   0.92815   0.52474   1.000
    O394    O    0.00000   0.42815   0.52474   1.000
    O395    O    0.00000   0.92815   0.52474   1.000
    O396    O    0.33744   0.15560   0.57240   1.000
    O397    O    0.33744   0.65559   0.57240   1.000
    O398    O    0.83744   0.15560   0.57240   1.000
    O399    O    0.83744   0.65559   0.57240   1.000
    O400    O    0.13073   0.19201   0.59974   1.000
    O401    O    0.13074   0.69201   0.59974   1.000
    O402    O    0.63074   0.19201   0.59974   1.000
    O403    O    0.63074   0.69201   0.59974   1.000
    O404    O    0.26557   0.19919   0.89527   1.000
    O405    O    0.31252   0.95381   0.52468   1.000
    O406    O    0.81252   0.45381   0.52468   1.000
    O407    O    0.81252   0.95381   0.52468   1.000
    O408    O    0.25506   0.32186   0.97523   1.000
    O409    O    0.25506   0.82186   0.97520   1.000
    O410    O    0.75506   0.32186   0.97523   1.000
    O411    O    0.75506   0.82186   0.97524   1.000
    O412    O    0.08747   0.09442   0.92755   1.000
    O413    O    0.08747   0.59442   0.92755   1.000
    O414    O    0.58747   0.09442   0.92755   1.000
    O415    O    0.58747   0.59442   0.92755   1.000
    O416    O    0.38076   0.05801   0.90020   1.000
    O417    O    0.38076   0.55800   0.90020   1.000
    O418    O    0.88076   0.05801   0.90020   1.000
    O419    O    0.88077   0.55800   0.90020   1.000
    O420    O    0.01560   0.05082   0.60469   1.000
    O421    O    0.01561   0.55082   0.60469   1.000
    O422    O    0.51560   0.05082   0.60460   1.000
    O423    O    0.51560   0.55082   0.60469   1.000
    O424    O    0.21401   0.05539   0.61998   1.000
    O425    O    0.21402   0.55539   0.61998   1.000
    O426    O    0.71401   0.05539   0.61998   1.000
    O427    O    0.71402   0.55539   0.61998   1.000
    O428    O    0.06250   0.29620   0.97529   1.000
    O429    O    0.06250   0.79619   0.97529   1.000
    O430    O    0.56250   0.29620   0.97529   1.000
    O431    O    0.56250   0.79619   0.97529   1.000
    O432    O    0.99490   0.07185   0.47523   1.000
    O433    O    0.99490   0.57185   0.47523   1.000
    O434    O    0.49491   0.07185   0.47523   1.000
    O435    O    0.49491   0.57185   0.47523   1.000
    O436    O    0.16256   0.34440   0.42758   1.000
    O437    O    0.16256   0.84440   0.42758   1.000
    O438    O    0.66256   0.34440   0.42758   1.000
    O439    O    0.66256   0.84440   0.42750   1.000
    O440    O    0.36926   0.30799   0.40023   1.000
    O441    O    0.36927   0.80799   0.40023   1.000
    O442    O    0.86926   0.30799   0.40023   1.000
    O443    O    0.86927   0.80799   0.40023   1.000
    O444    O    0.23442   0.30081   0.10470   1.000
    O445    O    0.23442   0.80081   0.10470   1.000
    O446    O    0.73442   0.30081   0.10470   1.000
    O447    O    0.73442   0.80081   0.10470   1.000
    O448    O    0.03601   0.30538   0.11999   1.000
    O449    O    0.03602   0.80538   0.11999   1.000
    O450    O    0.53602   0.30538   0.11999   1.000
    O451    O    0.53602   0.80538   0.11999   1.000
    O452    O    0.18747   0.04619   0.47529   1.000
    O453    O    0.18747   0.54619   0.47529   1.000
    O454    O    0.68747   0.04619   0.47500   1.000
    O455    O    0.68747   0.54619   0.47529   1.000
    O456    O    0.24493   0.17814   0.02474   1.000
    O457    O    0.24493   0.67814   0.02474   1.000
    O458    O    0.74493   0.17815   0.02474   1.000
    O459    O    0.74493   0.67814   0.02474   1.000
    O460    O    0.41253   0.40558   0.07242   1.000
    O461    O    0.41253   0.90558   0.07242   1.000
    O462    O    0.91253   0.40558   0.07242   1.000
    O463    O    0.91253   0.90558   0.07242   1.000
    O464    O    0.11924   0.44200   0.09970   1.000
    O465    O    0.11924   0.94199   0.09977   1.000
    O466    O    0.61924   0.44200   0.09970   1.000
    O467    O    0.61924   0.94199   0.09977   1.000
    O468    O    0.48439   0.44918   0.39529   1.000
    O469    O    0.48439   0.94918   0.39529   1.000
    O470    O    0.98439   0.44918   0.39529   1.000
    O471    O    0.98439   0.94918   0.39529   1.000
    O472    O    0.28598   0.44461   0.37999   1.000
    O473    O    0.28598   0.94461   0.37999   1.000
    O474    O    0.78598   0.44461   0.37999   1.000
    O475    O    0.78598   0.94461   0.37999   1.000
    O476    O    0.43749   0.20381   0.02468   1.000
    O477    O    0.43749   0.70380   0.02468   1.000
    O478    O    0.93749   0.20381   0.02468   1.000
    O479    O    0.93749   0.70380   0.02468   1.000
loop_
    _geom_bond_atom_site_label_1
    _geom_bond_atom_site_label_2
    _geom_bond_distance
    _geom_bond_site_symmetry_2
    _ccdc_geom_bond_type
    O479   C323      1.28957      .   S
    O478   C322      1.28955      .   S
    O477   C321      1.28958      .   S
    O476   C320      1.28954      .   S
    O456   C320      1.26081      .   S
    O457   C321      1.26082      .   S
    O458   C322      1.26081      .   S
    O459   C323      1.26082      .   S
    H116   C328      1.08716      .   S
    H117   C329      1.08717      .   S
    H118   C330      1.08716      .   S
    H119   C331      1.08716      .   S
    C323   C327      1.50850      .   S
    C322   C326      1.50852      .   S
    C320   C324      1.50855      .   S
    C321   C325      1.50850      .   S
    Ca3    O444      2.28811      .   S
    Ca3    O450      2.33758      .   S
    Ca4    O445      2.28811      .   S
    Ca4    O451      2.33759      .   S
    Ca5    O446      2.28811      .   S
    Ca5    O448      2.33757  1_655   S
    Ca6    O447      2.28811      .   S
    Ca6    O449      2.33757  1_655   S
    C328   C324      1.40019      .   S
    C328   C336      1.39198      .   S
    C329   C325      1.40019      .   S
    C329   C337      1.39102      .   S
    C330   C326      1.40020      .   S
    C330   C338      1.39198      .   S
    C331   C327      1.40020      .   S
    C331   C339      1.39198      .   S
    C327   C333      1.40270      .   S
    C326   C332      1.40268      .   S
    C325   C335      1.40273      .   S
    C324   C334      1.40269      .   S
    H124   C337      1.08715      .   S
    H125   C336      1.08723  1_565   S
    H126   C339      1.08716      .   S
    H127   C338      1.08724  1_565   S
    C337   C345      1.39827      .   S
    C339   C347      1.39730      .   S
    C338   C346      1.39255      .   S
    C336   C344      1.39256      .   S
    O461   S389      1.47252      .   S
    O463   S391      1.47252      .   S
    O462   S390      1.47252      .   S
    O460   S388      1.47252      .   S
    C335   H123      1.08988      .   S
    C335   C343      1.39447      .   S
    C334   H122      1.08988      .   S
    C334   C342      1.39504      .   S
    C332   H120      1.08991  1_655   S
    C332   C340      1.39504  1_655   S
    C333   H121      1.08989  1_655   S
    C333   C341      1.39504  1_655   S
    C346   C340      1.40000  1_655   S
    C346   S391      1.78633  1_545   S
    C344   C342      1.40000      .   S
    C344   S389      1.78633  1_545   S
    C347   C341      1.39960  1_655   S
    C347   S390      1.78201      .   S
    C345   C343      1.39958      .   S
    C345   S388      1.78201      .   S
    C343   H131      1.07951      .   S
    C340   H128      1.08768      .   S
    C341   H129      1.07894      .   S
    C342   H130      1.08769      .   S
    O464   S390      1.45753  1_455   S
    O466   S388      1.45755      .   S
    O465   S391      1.45740  1_455   S
    O467   S389      1.45741      .   S
    O447   C319      1.26739      .   S
    O444   C316      1.26739      .   S
    O445   C317      1.26738      .   S
    O446   C318      1.26806      .   S
    S390   C350      1.77575      .   S
    S388   C348      1.77575      .   S
    S389   C349      1.77575      .   S
    S391   C351      1.77575      .   S
    O451   C319      1.26831      .   S
    O450   C318      1.26866      .   S
    O449   C317      1.26833      .   S
    O448   C316      1.26831      .   S
    C316   C312      1.51747      .   S
    C317   C313      1.51746      .   S
    C319   C315      1.51748      .   S
    C318   C314      1.51634      .   S
    H137   C352      1.08891      .   S
    H140   C355      1.08891      .   S
    H139   C354      1.08890      .   S
    H138   C353      1.08890      .   S
    C350   C354      1.39862      .   S
    C350   C356      1.40065  1_655   S
    C348   C352      1.39861      .   S
    C348   C358      1.40067      .   S
    C349   C353      1.39861      .   S
    C349   C359      1.40067      .   S
    C351   C355      1.39861      .   S
    C351   C357      1.40065  1_655   S
    H114   C310      1.08936      .   S
    H115   C311      1.08936      .   S
    H113   C309      1.08935      .   S
    H112   C308      1.08936      .   S
    C355   C363      1.39604      .   S
    C354   C362      1.39604      .   S
    C353   C361      1.39604      .   S
    C352   C360      1.39604      .   S
    C314   C310      1.40256      .   S
    C314   C306      1.40172      .   S
    C313   C309      1.40256      .   S
    C313   C305      1.40171      .   S
    C312   C308      1.40255      .   S
    C312   C304      1.40172      .   S
    C315   C311      1.40255      .   S
    C315   C307      1.40171      .   S
    H142   C357      1.08809      .   S
    H141   C356      1.08808      .   S
    H143   C358      1.08808      .   S
    H144   C359      1.08809      .   S
    C311   C303      1.39104      .   S
    C310   C302      1.38966      .   S
    C309   C301      1.39105      .   S
    C308   C300      1.38967      .   S
    C359   C367      1.39114      .   S
    C358   C366      1.39113      .   S
    C357   C365      1.39114      .   S
    C356   C364      1.39113      .   S
    H109   C307      1.08795      .   S
    H110   C304      1.08793  1_655   S
    H111   C305      1.08794  1_655   S
    H108   C306      1.08795      .   S
    C307   C299      1.39663      .   S
    C306   C298      1.39663      .   S
    C305   C297      1.39663      .   S
    C304   C296      1.39663      .   S
    C360   H145      1.08819      .   S
    C360   C368      1.40120      .   S
    C361   H146      1.08743      .   S
    C361   C369      1.40120      .   S
    C362   H147      1.08820      .   S
    C362   C370      1.40120      .   S
    C363   H148      1.08742      .   S
    C363   C371      1.40121      .   S
    C300   H104      1.08799      .   S
    C300   C292      1.40163      .   S
    C302   H106      1.08798      .   S
    C302   C294      1.40163      .   S
    C301   H105      1.08807      .   S
    C301   C293      1.40076      .   S
    C303   H107      1.08808      .   S
    C303   C295      1.40075      .   S
    C367   C369      1.40206      .   S
    C367   H152      1.08926      .   S
    C365   C371      1.40204  1_455   S
    C365   H150      1.08926      .   S
    C366   C368      1.40206      .   S
    C366   H151      1.08926      .   S
    C364   C370      1.40204  1_455   S
    C364   H149      1.08926      .   S
    C371   C375      1.51773      .   S
    C370   C374      1.51773      .   S
    C368   C372      1.51774      .   S
    C369   C373      1.51772      .   S
    C297   C293      1.39864      .   S
    C297   H97       1.08893      .   S
    C299   C295      1.39863      .   S
    C299   H99       1.08893      .   S
    C298   C294      1.39862      .   S
    C298   H98       1.08894      .   S
    C296   C292      1.39862      .   S
    C296   H96       1.08894      .   S
    C295   S387      1.77475      .   S
    C294   S386      1.77566      .   S
    C293   S385      1.77475      .   S
    C292   S384      1.77566      .   S
    C373   O473      1.26860      .   S
    C373   O469      1.26807      .   S
    C375   O475      1.26860      .   S
    C375   O471      1.26807      .   S
    C374   O474      1.26860      .   S
    C374   O470      1.26807      .   S
    C372   O472      1.26859      .   S
    C372   O468      1.26808      .   S
    O474   Ca1       2.33785      .   S
    O473   Ca0       2.33784      .   S
    O472   Ca32      2.33784      .   S
    O475   Ca2       2.33784      .   S
    H92    C284      1.08768      .   S
    H95    C287      1.08766      .   S
    H94    C286      1.08769      .   S
    H93    C285      1.08764      .   S
    S387   O443      1.45746      .   S
    S387   C291      1.78230      .   S
    S387   O439      1.47212      .   S
    S385   O441      1.45746      .   S
    S385   C289      1.78232      .   S
    S385   O437      1.47293      .   S
    S384   O440      1.45738      .   S
    S384   C288      1.78196      .   S
    S384   O436      1.47252      .   S
    S386   O442      1.45739      .   S
    S386   C290      1.78196      .   S
    S386   O438      1.47252      .   S
    O470   Ca32      2.28800  1_655   S
    O471   Ca0       2.28800  1_655   S
    O468   Ca1       2.28801      .   S
    O469   Ca2       2.28802      .   S
    C284   C288      1.39964      .   S
    C284   C276      1.39509      .   S
    C285   C289      1.39964      .   S
    C285   C277      1.39510      .   S
    C286   C290      1.39962      .   S
    C286   C278      1.39506      .   S
    C287   C291      1.39964      .   S
    C287   C279      1.39510      .   S
    C288   C280      1.39740      .   S
    C289   C281      1.39736      .   S
    C290   C282      1.39742      .   S
    C291   C283      1.39738      .   S
    H87    C279      1.08990      .   S
    H86    C278      1.08989      .   S
    H85    C277      1.08990      .   S
    H84    C276      1.08988      .   S
    C278   C270      1.40263      .   S
    C276   C136      1.40265      .   S
    C279   C271      1.40257      .   S
    C277   C269      1.40259      .   S
    C283   H91       1.08713      .   S
    C283   C275      1.39200      .   S
    C282   H90       1.08712      .   S
    C282   C274      1.39194      .   S
    C281   H89       1.08713      .   S
    C281   C273      1.39200      .   S
    C280   H88       1.08714      .   S
    C280   C272      1.39197      .   S
    C271   C275      1.40018      .   S
    C271   C135      1.50856      .   S
    C269   C273      1.40019      .   S
    C269   C133      1.50841      .   S
    C270   C274      1.40018      .   S
    C270   C134      1.50860      .   S
    C136   C272      1.40019      .   S
    C136   C132      1.50853      .   S
    C275   H81       1.08668      .   S
    C274   H80       1.08720      .   S
    C273   H83       1.08666  1_455   S
    C272   H82       1.08666  1_455   S
    C133   O433      1.26087  1_455   S
    C133   O453      1.28962      .   S
    C132   O432      1.26080  1_455   S
    C132   O452      1.28954      .   S
    C134   O454      1.28803      .   S
    C134   O434      1.26079      .   S
    C135   O435      1.26082      .   S
    C135   O455      1.28955      .   S
    O405   C154      1.28953      .   S
    O407   C156      1.28956      .   S
    O406   C155      1.28955      .   S
    O215   C153      1.28955      .   S
    O395   C156      1.20507  1_455   S
    O394   C155      1.20507  1_455   S
    O393   C154      1.26079      .   S
    O392   C153      1.26081      .   S
    H18    C162      1.08719      .   S
    H17    C161      1.08719      .   S
    H16    C164      1.08707  1_455   S
    H15    C163      1.08718  1_455   S
    C153   C157      1.50850      .   S
    C154   C158      1.50861      .   S
    C155   C159      1.50855      .   S
    C156   C160      1.50856      .   S
    Ca7    O422      2.28687      .   S
    Ca7    O424      2.33785      .   S
    Ca10   O421      2.28812  1_655   S
    Ca10   O427      2.33785      .   S
    Ca9    O420      2.28813  1_655   S
    Ca9    O426      2.33785      .   S
    Ca8    O423      2.28813      .   S
    Ca8    O425      2.33785      .   S
    C164   C160      1.40020      .   S
    C164   C172      1.39200      .   S
    C163   C159      1.40020      .   S
    C163   C171      1.39194      .   S
    C162   C158      1.40019      .   S
    C162   C170      1.39194      .   S
    C161   C157      1.40020      .   S
    C161   C169      1.39197      .   S
    C157   C165      1.40267      .   S
    C158   C166      1.40263      .   S
    C159   C167      1.40266      .   S
    C160   C168      1.40261      .   S
    H26    C172      1.08714      .   S
    H25    C171      1.08714      .   S
    H24    C170      1.08713      .   S
    H23    C169      1.08713      .   S
    C169   C177      1.39738      .   S
    C170   C178      1.39742      .   S
    C171   C179      1.39739      .   S
    C172   C180      1.39656      .   S
    O397   S377      1.47214      .   S
    O396   S376      1.47213      .   S
    O399   S379      1.47244      .   S
    O398   S378      1.47214      .   S
    C166   H20       1.08988      .   S
    C166   C174      1.39509      .   S
    C167   H21       1.08989      .   S
    C167   C175      1.39509      .   S
    C168   H22       1.08989      .   S
    C168   C176      1.39503      .   S
    C165   H19       1.08988      .   S
    C165   C173      1.39433      .   S
    C180   C176      1.39971      .   S
    C180   S379      1.78268      .   S
    C178   C174      1.39964      .   S
    C178   S377      1.78165      .   S
    C177   C173      1.39958      .   S
    C177   S376      1.78168      .   S
    C179   C175      1.39962      .   S
    C179   S378      1.78168      .   S
    C173   H27       1.08846      .   S
    C175   H29       1.08768      .   S
    C176   H30       1.08770      .   S
    C174   H28       1.08769      .   S
    O400   S376      1.45733      .   S
    O403   S379      1.45740      .   S
    O402   S378      1.45733      .   S
    O401   S377      1.45734      .   S
    O422   C267      1.26916      .   S
    O423   C268      1.26795      .   S
    O421   C266      1.26795      .   S
    O420   C265      1.26794      .   S
    S378   C183      1.77634      .   S
    S376   C181      1.77634      .   S
    S377   C182      1.77634      .   S
    S379   C184      1.77566      .   S
    O427   C268      1.26861      .   S
    O426   C267      1.26860      .   S
    O425   C266      1.26860      .   S
    O424   C265      1.26860      .   S
    C266   C262      1.51657      .   S
    C265   C261      1.51657      .   S
    C268   C264      1.51656      .   S
    C267   C263      1.51656      .   S
    H33    C186      1.08939      .   S
    H34    C187      1.08939      .   S
    H35    C188      1.08939      .   S
    H31    C185      1.08895      .   S
    C182   C186      1.39862      .   S
    C182   C190      1.40063      .   S
    C183   C187      1.39861      .   S
    C183   C191      1.40077      .   S
    C184   C188      1.39861      .   S
    C184   C192      1.40062      .   S
    C181   C185      1.39861      .   S
    C181   C189      1.40077      .   S
    H78    C259      1.08925      .   S
    H76    C257      1.08926      .   S
    H77    C258      1.08925      .   S
    H79    C260      1.08925      .   S
    C188   C196      1.39617      .   S
    C187   C195      1.39617      .   S
    C186   C194      1.39616      .   S
    C185   C193      1.39617      .   S
    C262   C260      1.40245  1_455   S
    C262   C254      1.40194      .   S
    C264   C258      1.40246      .   S
    C264   C256      1.40195      .   S
    C263   C257      1.40246      .   S
    C263   C255      1.40195      .   S
    C261   C259      1.40245  1_455   S
    C261   C253      1.40195      .   S
    H39    C192      1.08882      .   S
    H37    C190      1.08806      .   S
    H36    C189      1.08806      .   S
    H38    C191      1.08807      .   S
    C257   C249      1.39113      .   S
    C258   C250      1.39113      .   S
    C259   C251      1.39113      .   S
    C260   C252      1.39113      .   S
    C190   C198      1.39126      .   S
    C192   C200      1.39126      .   S
    C191   C199      1.39103      .   S
    C189   C197      1.39104      .   S
    H75    C256      1.08819      .   S
    H72    C253      1.08818      .   S
    H73    C254      1.08820      .   S
    H74    C255      1.08818      .   S
    C256   C248      1.39603      .   S
    C255   C247      1.39604      .   S
    C254   C246      1.39603      .   S
    C253   C245      1.39603      .   S
    C193   H42       1.08812      .   S
    C193   C201      1.40202      .   S
    C194   H43       1.08812      .   S
    C194   C202      1.40203      .   S
    C195   H40       1.08810  1_655   S
    C195   C203      1.40201      .   S
    C196   H41       1.08810  1_655   S
    C196   C204      1.40202      .   S
    C252   H71       1.08808      .   S
    C252   C242      1.39994  1_655   S
    C251   H70       1.08808      .   S
    C251   C241      1.39994  1_655   S
    C250   H69       1.08808      .   S
    C250   C244      1.39995      .   S
    C249   H68       1.08808      .   S
    C249   C243      1.39995      .   S
    C200   C204      1.40255      .   S
    C200   H47       1.08938      .   S
    C199   C203      1.40255      .   S
    C199   H46       1.08937      .   S
    C198   C202      1.40253      .   S
    C198   H45       1.08938      .   S
    C197   C201      1.40255      .   S
    C197   H44       1.08936      .   S
    C204   C100      1.51654      .   S
    C203   C207      1.51656      .   S
    C202   C206      1.51656      .   S
    C201   C205      1.51655      .   S
    C245   C241      1.39822      .   S
    C245   H64       1.08890      .   S
    C246   C242      1.39822      .   S
    C246   H65       1.08890      .   S
    C247   C243      1.39821      .   S
    C247   H66       1.08892      .   S
    C248   C244      1.39821      .   S
    C248   H67       1.08891      .   S
    C241   S380      1.77688      .   S
    C244   S383      1.77688      .   S
    C243   S382      1.77688      .   S
    C242   S381      1.77688      .   S
    C205   O211      1.26858      .   S
    C205   O404      1.26795      .   S
    C206   O212      1.26857      .   S
    C206   O208      1.26795      .   S
    C207   O213      1.26859      .   S
    C207   O209      1.26794      .   S
    C100   O214      1.26859      .   S
    C100   O210      1.26795      .   S
    O212   Ca14      2.33777      .   S
    O213   Ca11      2.33776  1_655   S
    O214   Ca12      2.33776  1_655   S
    O211   Ca13      2.33778      .   S
    H60    C233      1.08765      .   S
    H61    C234      1.08768      .   S
    H62    C235      1.08765      .   S
    H63    C236      1.08767      .   S
    S380   O418      1.45739  1_455   S
    S380   C238      1.78210  1_545   S
    S380   O412      1.47249      .   S
    S381   O419      1.45740  1_455   S
    S381   C237      1.78195      .   S
    S381   O413      1.47251      .   S
    S382   O416      1.45741      .   S
    S382   C240      1.78207  1_545   S
    S382   O414      1.47249      .   S
    S383   O417      1.45741      .   S
    S383   C239      1.78195      .   S
    S383   O415      1.47252      .   S
    O209   Ca13      2.28823      .   S
    O208   Ca12      2.28821      .   S
    O404   Ca11      2.28822      .   S
    O210   Ca14      2.28821      .   S
    C233   C239      1.39961      .   S
    C233   C225      1.39508      .   S
    C236   C238      1.39961  1_655   S
    C236   C228      1.39405  1_655   S
    C235   C237      1.39959  1_655   S
    C235   C227      1.39408  1_655   S
    C234   C240      1.39961      .   S
    C234   C226      1.39503      .   S
    C238   C230      1.39741      .   S
    C239   C231      1.39739      .   S
    C237   C229      1.39739      .   S
    C240   C232      1.39741      .   S
    H54    C227      1.08723  1_655   S
    H52    C225      1.08988      .   S
    H55    C228      1.08720  1_655   S
    H53    C226      1.08991      .   S
    C227   C217      1.40625      .   S
    C226   C220      1.40268      .   S
    C225   C219      1.40262      .   S
    C228   C218      1.40554      .   S
    C232   H58       1.08723  1_565   S
    C232   C224      1.39198      .   S
    C231   H59       1.08715      .   S
    C231   C223      1.39200      .   S
    C230   H56       1.08723  1_565   S
    C230   C222      1.39200      .   S
    C229   H57       1.08715      .   S
    C229   C221      1.39200      .   S
    C218   C222      1.40020      .   S
    C218   C102      1.50929      .   S
    C217   C221      1.40020      .   S
    C217   C101      1.50862      .   S
    C219   C223      1.40020      .   S
    C219   C103      1.50862      .   S
    C220   C224      1.40020      .   S
    C220   C216      1.50851      .   S
    C224   H51       1.08707      .   S
    C223   H50       1.08706      .   S
    C222   H49       1.08706      .   S
    C221   H48       1.08706      .   S
    C216   O411      1.26084      .   S
    C216   O431      1.28956      .   S
    C102   O409      1.26070      .   S
    C102   O429      1.28956      .   S
    C103   O410      1.26079      .   S
    C103   O430      1.28953      .   S
    C101   O408      1.26079      .   S
    C101   O428      1.28953      .   S
    O392   Ca1       2.36463      .   S
    O393   Ca2       2.36466      .   S
    O394   Ca32      2.40355      .   S
    O395   Ca0       2.40357      .   S
    O396   Ca7       2.48256      .   S
    O397   Ca8       2.48253      .   S
    O398   Ca9       2.48253      .   S
    O399   Ca10      2.48251      .   S
    O215   Ca32      2.47442      .   S
    O215   Ca8       2.42801      .   S
    O405   Ca0       2.47442      .   S
    O405   Ca7       2.42814  1_565   S
    O406   Ca1       2.47443      .   S
    O406   Ca10      2.42801      .   S
    O407   Ca2       2.47443      .   S
    O407   Ca9       2.42814  1_565   S
    O408   Ca3       2.36510  1_556   S
    O409   Ca4       2.36561  1_556   S
    O410   Ca5       2.36510  1_556   S
    O411   Ca6       2.36495  1_556   S
    O412   Ca11      2.48245      .   S
    O413   Ca12      2.48245      .   S
    O414   Ca13      2.48245      .   S
    O415   Ca14      2.48245      .   S
    O428   Ca5       2.47476  1_456   S
    O428   Ca11      2.42803      .   S
    O429   Ca6       2.47475  1_456   S
    O429   Ca12      2.42798      .   S
    O430   Ca3       2.47477  1_556   S
    O430   Ca13      2.42803      .   S
    O431   Ca4       2.47477  1_556   S
    O431   Ca14      2.42798      .   S
    O432   Ca9       2.36464      .   S
    O433   Ca10      2.36461      .   S
    O434   Ca7       2.36467      .   S
    O435   Ca8       2.36465      .   S
    O436   Ca32      2.48253      .   S
    O437   Ca0       2.48256      .   S
    O438   Ca1       2.48253      .   S
    O439   Ca2       2.48277      .   S
    O452   Ca0       2.42816  1_545   S
    O452   Ca7       2.47443      .   S
    O453   Ca32      2.42803      .   S
    O453   Ca8       2.47444      .   S
    O454   Ca2       2.42774  1_545   S
    O454   Ca9       2.47881      .   S
    O455   Ca1       2.42803      .   S
    O455   Ca10      2.47444      .   S
    O456   Ca11      2.36496  1_554   S
    O457   Ca12      2.36494  1_554   S
    O458   Ca13      2.36495  1_554   S
    O459   Ca14      2.36495  1_554   S
    O460   Ca3       2.48240      .   S
    O461   Ca4       2.48240      .   S
    O462   Ca5       2.48240      .   S
    O463   Ca6       2.48240      .   S
    O476   Ca3       2.42799      .   S
    O476   Ca13      2.47466  1_554   S
    O477   Ca4       2.42801      .   S
    O477   Ca14      2.47465  1_554   S
    O478   Ca5       2.42799      .   S
    O478   Ca11      2.47464  1_654   S
    O479   Ca6       2.42801      .   S
    O479   Ca12      2.47465  1_654   S
