# CIF file generated by openbabel 2.4.90, see http://openbabel.sf.net
data_I
_chemical_name_common ''
_cell_length_a 11.272
_cell_length_b 24.217
_cell_length_c 23.214
_cell_angle_alpha 98.079
_cell_angle_beta 90.007
_cell_angle_gamma 89.999
_space_group_name_H-M_alt 'P 1'
_space_group_name_Hall 'P 1'
loop_
    _symmetry_equiv_pos_as_xyz
    x,y,z
loop_
    _atom_site_label
    _atom_site_type_symbol
    _atom_site_fract_x
    _atom_site_fract_y
    _atom_site_fract_z
    _atom_site_occupancy
    Zr0     Zr   0.14597   0.44700   0.45459   1.000
    Zr1     Zr   0.14597   0.94699   0.45459   1.000
    Zr2     Zr   0.64597   0.44700   0.45459   1.000
    Zr3     Zr   0.64597   0.94699   0.45459   1.000
    Zr4     Zr   0.39598   0.30299   0.04540   1.000
    Zr5     Zr   0.39598   0.80299   0.04540   1.000
    Zr6     Zr   0.89598   0.30299   0.04540   1.000
    Zr7     Zr   0.89598   0.80299   0.04540   1.000
    Zr8     Zr   0.35402   0.05301   0.54538   1.000
    Zr9     Zr   0.35402   0.55300   0.54538   1.000
    Zr10    Zr   0.85402   0.05301   0.54538   1.000
    Zr11    Zr   0.85403   0.55300   0.54538   1.000
    Zr12    Zr   0.10401   0.19701   0.95458   1.000
    Zr13    Zr   0.10402   0.69701   0.95458   1.000
    Zr14    Zr   0.60401   0.19701   0.95458   1.000
    Zr15    Zr   0.60402   0.69701   0.95458   1.000
    N16     N    0.42294   0.51088   0.15855   1.000
    O17     O    0.41360   0.43258   0.10873   1.000
    O18     O    0.49406   0.47948   0.29174   1.000
    O19     O    0.41984   0.63214   0.09679   1.000
    O20     O    0.47185   0.60564   0.07409   1.000
    O21     O    0.31946   0.47834   0.28792   1.000
    O22     O    0.29871   0.59923   0.07410   1.000
    N23     N    0.92294   0.01087   0.15857   1.000
    O24     O    0.79871   0.09923   0.07411   1.000
    O25     O    0.81946   0.97834   0.28793   1.000
    O26     O    0.91984   0.13214   0.09680   1.000
    O27     O    0.97185   0.10564   0.07410   1.000
    O28     O    0.99406   0.97948   0.29175   1.000
    O29     O    0.91360   0.93258   0.10874   1.000
    N30     N    0.42294   0.01087   0.15857   1.000
    O31     O    0.41360   0.93258   0.10874   1.000
    O32     O    0.41984   0.13214   0.09680   1.000
    O33     O    0.47184   0.10564   0.07410   1.000
    O34     O    0.29870   0.09923   0.07411   1.000
    O35     O    0.49406   0.97948   0.29175   1.000
    O36     O    0.31946   0.97834   0.28793   1.000
    N37     N    0.82687   0.76088   0.65857   1.000
    O38     O    0.77806   0.85564   0.57410   1.000
    O39     O    0.83007   0.88215   0.59680   1.000
    O40     O    0.93044   0.72835   0.78793   1.000
    O41     O    0.75583   0.72949   0.79175   1.000
    O42     O    0.83630   0.68259   0.60873   1.000
    O43     O    0.94993   0.84923   0.57412   1.000
    N44     N    0.82687   0.26089   0.65858   1.000
    O45     O    0.75583   0.22949   0.79175   1.000
    O46     O    0.77806   0.35565   0.57411   1.000
    O47     O    0.83007   0.38215   0.59680   1.000
    O48     O    0.93043   0.22835   0.78793   1.000
    O49     O    0.94993   0.34923   0.57412   1.000
    O50     O    0.83630   0.18259   0.60873   1.000
    N51     N    0.32704   0.26089   0.65858   1.000
    O52     O    0.27814   0.35565   0.57411   1.000
    O53     O    0.33016   0.38215   0.59680   1.000
    O54     O    0.25592   0.22949   0.79175   1.000
    O55     O    0.43052   0.22835   0.78793   1.000
    O56     O    0.45129   0.34923   0.57412   1.000
    O57     O    0.33639   0.18259   0.60873   1.000
    N58     N    0.32705   0.76088   0.65858   1.000
    O59     O    0.33639   0.68259   0.60873   1.000
    O60     O    0.43052   0.72835   0.78793   1.000
    O61     O    0.27815   0.85564   0.57411   1.000
    O62     O    0.33016   0.88215   0.59680   1.000
    O63     O    0.25592   0.72949   0.79175   1.000
    O64     O    0.45129   0.84923   0.57412   1.000
    N65     N    0.07705   0.98913   0.84137   1.000
    O66     O    0.08640   0.06742   0.89122   1.000
    O67     O    0.20129   0.90077   0.92584   1.000
    O68     O    0.18053   0.02166   0.71203   1.000
    O69     O    0.02815   0.89436   0.92586   1.000
    O70     O    0.08015   0.86786   0.90315   1.000
    O71     O    0.00593   0.02052   0.70820   1.000
    N72     N    0.17295   0.23912   0.34138   1.000
    O73     O    0.16984   0.11785   0.40316   1.000
    O74     O    0.22185   0.14436   0.42586   1.000
    O75     O    0.16361   0.31741   0.39123   1.000
    O76     O    0.06948   0.27165   0.21204   1.000
    O77     O    0.04871   0.15077   0.42584   1.000
    O78     O    0.24408   0.27051   0.20822   1.000
    N79     N    0.17296   0.73911   0.34139   1.000
    O80     O    0.06948   0.77165   0.21204   1.000
    O81     O    0.24408   0.77051   0.20822   1.000
    O82     O    0.16984   0.61785   0.40316   1.000
    O83     O    0.22185   0.64435   0.42586   1.000
    O84     O    0.16361   0.81741   0.39124   1.000
    O85     O    0.04871   0.65077   0.42585   1.000
    N86     N    0.07705   0.48913   0.84138   1.000
    O87     O    0.18054   0.52166   0.71203   1.000
    O88     O    0.02815   0.39436   0.92586   1.000
    O89     O    0.08015   0.36787   0.90316   1.000
    O90     O    0.08640   0.56742   0.89122   1.000
    O91     O    0.00593   0.52052   0.70821   1.000
    O92     O    0.20129   0.40078   0.92585   1.000
    N93     N    0.57706   0.48913   0.84138   1.000
    O94     O    0.58640   0.56742   0.89122   1.000
    O95     O    0.50594   0.52052   0.70821   1.000
    O96     O    0.70129   0.40078   0.92585   1.000
    O97     O    0.68054   0.52166   0.71203   1.000
    O98     O    0.52815   0.39436   0.92586   1.000
    O99     O    0.58016   0.36787   0.90316   1.000
    N100    N    0.67296   0.73911   0.34138   1.000
    O101    O    0.54871   0.65077   0.42584   1.000
    O102    O    0.56948   0.77165   0.21204   1.000
    O103    O    0.66984   0.61785   0.40316   1.000
    O104    O    0.72185   0.64435   0.42586   1.000
    O105    O    0.66361   0.81741   0.39121   1.000
    O106    O    0.74408   0.77051   0.20822   1.000
    N107    N    0.92294   0.51088   0.15855   1.000
    O108    O    0.99406   0.47948   0.29175   1.000
    O109    O    0.91984   0.63214   0.09680   1.000
    O110    O    0.97185   0.60564   0.07409   1.000
    O111    O    0.79871   0.59923   0.07411   1.000
    O112    O    0.91360   0.43258   0.10873   1.000
    O113    O    0.81946   0.47834   0.28792   1.000
    N114    N    0.67295   0.23912   0.34138   1.000
    O115    O    0.56948   0.27165   0.21204   1.000
    O116    O    0.66984   0.11785   0.40309   1.000
    O117    O    0.72185   0.14436   0.42578   1.000
    O118    O    0.74408   0.27051   0.20821   1.000
    O119    O    0.66361   0.31741   0.39123   1.000
    O120    O    0.54871   0.15077   0.42584   1.000
    N121    N    0.57706   0.98913   0.84138   1.000
    O122    O    0.58640   0.06742   0.89122   1.000
    O123    O    0.70129   0.90077   0.92585   1.000
    O124    O    0.50594   0.02052   0.70818   1.000
    O125    O    0.68054   0.02166   0.71203   1.000
    O126    O    0.52815   0.89436   0.92586   1.000
    O127    O    0.58016   0.86786   0.90316   1.000
loop_
    _geom_bond_atom_site_label_1
    _geom_bond_atom_site_label_2
    _geom_bond_distance
    _geom_bond_site_symmetry_2
    _ccdc_geom_bond_type
    N16    O17       2.08020      .   S
    Zr4    O17       3.27909      .   S
    N16    O18       3.38249      .   S
    Zr2    O18       4.32158      .   S
    N16    O19       3.44428      .   S
    Zr5    O19       4.47244      .   S
    N16    O20       3.26800      .   S
    Zr15   O20       4.06677  1_556   S
    N16    O21       3.41565      .   S
    Zr0    O21       4.49415      .   S
    N16    O22       3.39993      .   S
    Zr13   O22       4.46847  1_556   S
    N23    O24       3.40012      .   S
    Zr14   O24       4.46866  1_556   S
    N23    O25       3.41545  1_545   S
    Zr3    O25       4.49396      .   S
    N23    O26       3.44444      .   S
    Zr6    O26       4.47256      .   S
    N23    O27       3.26818      .   S
    Zr12   O27       4.06695  1_456   S
    N23    O28       3.38229  1_545   S
    Zr1    O28       4.32139  1_455   S
    N23    O29       2.08030  1_545   S
    Zr7    O29       3.27916      .   S
    N30    O31       2.08030  1_545   S
    Zr5    O31       3.27916      .   S
    N30    O32       3.44444      .   S
    Zr4    O32       4.47256      .   S
    N30    O33       3.26818      .   S
    Zr14   O33       4.06696  1_556   S
    N30    O34       3.40012      .   S
    Zr12   O34       4.46867  1_556   S
    N30    O35       3.38230  1_545   S
    Zr3    O35       4.32139      .   S
    N30    O36       3.41545  1_545   S
    Zr1    O36       4.49396      .   S
    N37    O38       3.26775      .   S
    Zr3    O38       4.06596      .   S
    N37    O39       3.44454      .   S
    Zr10   O39       4.47291  1_545   S
    N37    O40       3.41535      .   S
    Zr13   O40       4.49384  1_455   S
    N37    O41       3.38203      .   S
    Zr15   O41       4.32122      .   S
    N37    O42       2.08043      .   S
    Zr11   O42       3.27931      .   S
    N37    O43       3.39477      .   S
    Zr1    O43       4.47619  1_455   S
    N44    O45       3.38197      .   S
    Zr14   O45       4.32117      .   S
    N44    O46       3.26779      .   S
    Zr2    O46       4.06600      .   S
    N44    O47       3.44453      .   S
    Zr11   O47       4.47282      .   S
    N44    O48       3.41530      .   S
    Zr12   O48       4.49380  1_455   S
    N44    O49       3.39482      .   S
    Zr0    O49       4.47622  1_455   S
    N44    O50       2.08047      .   S
    Zr10   O50       3.27936      .   S
    N51    O52       3.26793      .   S
    Zr0    O52       4.06634      .   S
    N51    O53       3.44450      .   S
    Zr9    O53       4.47274      .   S
    N51    O54       3.38222      .   S
    Zr12   O54       4.32157      .   S
    N51    O55       3.41498      .   S
    Zr14   O55       4.49339      .   S
    N51    O56       3.40029      .   S
    Zr2    O56       4.46866      .   S
    N51    O57       2.08040      .   S
    Zr8    O57       3.27930      .   S
    N58    O59       2.08041      .   S
    Zr9    O59       3.27929      .   S
    N58    O60       3.41496      .   S
    Zr15   O60       4.49336      .   S
    N58    O61       3.26796      .   S
    Zr1    O61       4.06636      .   S
    N58    O62       3.44456      .   S
    Zr8    O62       4.47287  1_545   S
    N58    O63       3.38221      .   S
    Zr13   O63       4.32156      .   S
    N58    O64       3.40029      .   S
    Zr3    O64       4.46868      .   S
    N65    O66       2.08048  1_565   S
    Zr12   O66       3.27934      .   S
    N65    O67       3.40027      .   S
    Zr5    O67       4.46913  1_554   S
    N65    O68       3.41517  1_565   S
    Zr8    O68       4.49369      .   S
    N65    O69       3.26843      .   S
    Zr7    O69       4.06730  1_654   S
    N65    O70       3.44463      .   S
    Zr13   O70       4.47274      .   S
    N65    O71       3.38192  1_565   S
    Zr10   O71       4.32113  1_655   S
    N72    O73       3.44464      .   S
    Zr1    O73       4.47294  1_565   S
    N72    O74       3.26805      .   S
    Zr8    O74       4.06647      .   S
    N72    O75       2.08048      .   S
    Zr0    O75       3.27931      .   S
    N72    O76       3.41480      .   S
    Zr6    O76       4.49310  1_655   S
    N72    O77       3.40039      .   S
    Zr10   O77       4.46878  1_655   S
    N72    O78       3.38202      .   S
    Zr4    O78       4.32128      .   S
    N79    O80       3.41484      .   S
    Zr7    O80       4.49314  1_655   S
    N79    O81       3.38206      .   S
    Zr5    O81       4.32132      .   S
    N79    O82       3.44457      .   S
    Zr0    O82       4.47281      .   S
    N79    O83       3.26802      .   S
    Zr9    O83       4.06644      .   S
    N79    O84       2.08047      .   S
    Zr1    O84       3.27931      .   S
    N79    O85       3.40037      .   S
    Zr11   O85       4.46874  1_655   S
    N86    O87       3.41519      .   S
    Zr9    O87       4.49371      .   S
    N86    O88       3.26837      .   S
    Zr6    O88       4.06726  1_654   S
    N86    O89       3.44457      .   S
    Zr12   O89       4.47271      .   S
    N86    O90       2.08045      .   S
    Zr13   O90       3.27932      .   S
    N86    O91       3.38194      .   S
    Zr11   O91       4.32114  1_655   S
    N86    O92       3.40034      .   S
    Zr4    O92       4.46896  1_554   S
    N93    O94       2.08044      .   S
    Zr15   O94       3.27931      .   S
    N93    O95       3.38197      .   S
    Zr9    O95       4.32118      .   S
    N93    O96       3.40030      .   S
    Zr6    O96       4.46892  1_554   S
    N93    O97       3.41518      .   S
    Zr11   O97       4.49370      .   S
    N93    O98       3.26838      .   S
    Zr4    O98       4.06729  1_554   S
    N93    O99       3.44456      .   S
    Zr14   O99       4.47270      .   S
    N100   O101      3.40039      .   S
    Zr9    O101      4.46879      .   S
    N100   O102      3.41482      .   S
    Zr5    O102      4.49313      .   S
    N100   O103      3.44459      .   S
    Zr2    O103      4.47282      .   S
    N100   O104      3.26803      .   S
    Zr11   O104      4.06645      .   S
    N100   O105      2.08028      .   S
    Zr3    O105      3.27947      .   S
    N100   O106      3.38203      .   S
    Zr7    O106      4.32129      .   S
    N107   O108      3.38243      .   S
    Zr0    O108      4.32152  1_455   S
    N107   O109      3.44432      .   S
    Zr7    O109      4.47246      .   S
    N107   O110      3.26804      .   S
    Zr13   O110      4.06682  1_456   S
    N107   O111      3.39998      .   S
    Zr15   O111      4.46852  1_556   S
    N107   O112      2.08023      .   S
    Zr6    O112      3.27910      .   S
    N107   O113      3.41559      .   S
    Zr2    O113      4.49409      .   S
    N114   O115      3.41473      .   S
    Zr4    O115      4.49304      .   S
    N114   O116      3.44378      .   S
    Zr3    O116      4.47363  1_565   S
    N114   O117      3.26693      .   S
    Zr10   O117      4.06780      .   S
    N114   O118      3.38195      .   S
    Zr6    O118      4.32122      .   S
    N114   O119      2.08051      .   S
    Zr2    O119      3.27933      .   S
    N114   O120      3.40044      .   S
    Zr8    O120      4.46885      .   S
    N121   O122      2.08047  1_565   S
    Zr14   O122      3.27933      .   S
    N121   O123      3.40039      .   S
    Zr7    O123      4.46894  1_554   S
    N121   O124      3.38244  1_565   S
    Zr8    O124      4.32070      .   S
    N121   O125      3.41516  1_565   S
    Zr10   O125      4.49367      .   S
    N121   O126      3.26844      .   S
    Zr5    O126      4.06732  1_554   S
    N121   O127      3.44463      .   S
    Zr15   O127      4.47274      .   S
