# CIF file generated by openbabel 2.4.90, see http://openbabel.sf.net
data_I
_chemical_name_common ''
_cell_length_a 13.569
_cell_length_b 13.571
_cell_length_c 23.187
_cell_angle_alpha 90.029
_cell_angle_beta 89.966
_cell_angle_gamma 90.014
_space_group_name_H-M_alt 'P 1'
_space_group_name_Hall 'P 1'
loop_
    _symmetry_equiv_pos_as_xyz
    x,y,z
loop_
    _atom_site_label
    _atom_site_type_symbol
    _atom_site_fract_x
    _atom_site_fract_y
    _atom_site_fract_z
    _atom_site_occupancy
    C0      C    0.13762   0.19945   0.94274   1.000
    C1      C    0.86234   0.80046   0.44274   1.000
    C2      C    0.30052   0.63767   0.19272   1.000
    C3      C    0.69961   0.36237   0.69276   1.000
    C4      C    0.36235   0.69958   0.30725   1.000
    C5      C    0.63768   0.30054   0.80729   1.000
    C6      C    0.19945   0.13763   0.05728   1.000
    C7      C    0.80043   0.86235   0.55727   1.000
    C8      C    0.00561   0.33882   0.71341   1.000
    C9      C    0.22980   0.23844   0.83250   1.000
    C10     C    0.94025   0.25198   0.88744   1.000
    C11     C    0.32729   0.32211   0.78263   1.000
    C12     C    0.41743   0.32358   0.60608   1.000
    C13     C    0.24180   0.30067   0.57508   1.000
    C14     C    0.11032   0.28373   0.64794   1.000
    C15     C    0.99456   0.66115   0.21332   1.000
    C16     C    0.77015   0.76150   0.33259   1.000
    C17     C    0.05961   0.74791   0.38741   1.000
    C18     C    0.67275   0.67789   0.28257   1.000
    C19     C    0.58294   0.67646   0.10602   1.000
    C20     C    0.75863   0.69938   0.07503   1.000
    C21     C    0.88996   0.71630   0.14790   1.000
    C22     C    0.16085   0.50545   0.96344   1.000
    C23     C    0.26124   0.72985   0.08263   1.000
    C24     C    0.24799   0.44034   0.13739   1.000
    C25     C    0.17762   0.82723   0.03266   1.000
    C26     C    0.17634   0.91701   0.85612   1.000
    C27     C    0.19914   0.74134   0.82513   1.000
    C28     C    0.21595   0.61003   0.89000   1.000
    C29     C    0.83906   0.49443   0.46330   1.000
    C30     C    0.73894   0.27014   0.58266   1.000
    C31     C    0.75215   0.55973   0.63745   1.000
    C32     C    0.82243   0.17274   0.53264   1.000
    C33     C    0.82365   0.08260   0.35609   1.000
    C34     C    0.80089   0.25822   0.32510   1.000
    C35     C    0.78411   0.38968   0.39797   1.000
    C36     C    0.49439   0.83885   0.53667   1.000
    C37     C    0.27011   0.73866   0.41740   1.000
    C38     C    0.55970   0.75215   0.36256   1.000
    C39     C    0.17269   0.82223   0.46742   1.000
    C40     C    0.08252   0.82359   0.64397   1.000
    C41     C    0.25813   0.80069   0.67496   1.000
    C42     C    0.38961   0.78380   0.60200   1.000
    C43     C    0.50543   0.16112   0.03662   1.000
    C44     C    0.72985   0.26156   0.91743   1.000
    C45     C    0.44034   0.24802   0.86263   1.000
    C46     C    0.82723   0.17785   0.96740   1.000
    C47     C    0.91700   0.17645   0.14395   1.000
    C48     C    0.74132   0.19939   0.17494   1.000
    C49     C    0.61001   0.21632   0.10207   1.000
    C50     C    0.33910   0.00563   0.28650   1.000
    C51     C    0.23871   0.22982   0.16740   1.000
    C52     C    0.25201   0.94025   0.11258   1.000
    C53     C    0.32232   0.32729   0.21734   1.000
    C54     C    0.32364   0.41739   0.39390   1.000
    C55     C    0.30089   0.24175   0.42489   1.000
    C56     C    0.28407   0.11030   0.35203   1.000
    C57     C    0.66085   0.99456   0.78660   1.000
    C58     C    0.76116   0.77018   0.66739   1.000
    C59     C    0.74783   0.05965   0.61260   1.000
    C60     C    0.67763   0.67278   0.71741   1.000
    C61     C    0.67635   0.58296   0.89396   1.000
    C62     C    0.69910   0.75864   0.92494   1.000
    C63     C    0.71590   0.88998   0.85208   1.000
    C64     C    0.85247   0.31271   0.78518   1.000
    C65     C    0.96033   0.29620   0.79802   1.000
    C66     C    0.03074   0.31113   0.75496   1.000
    C67     C    0.13045   0.29098   0.76549   1.000
    C68     C    0.15453   0.25758   0.82091   1.000
    C69     C    0.99173   0.26403   0.85216   1.000
    C70     C    0.20802   0.30204   0.72114   1.000
    C71     C    0.30659   0.31570   0.73740   1.000
    C72     C    0.38166   0.32235   0.69642   1.000
    C73     C    0.35823   0.31788   0.63764   1.000
    C74     C    0.26038   0.30522   0.62075   1.000
    C75     C    0.18591   0.29661   0.66195   1.000
    C76     C    0.48684   0.33112   0.71600   1.000
    C77     C    0.14756   0.68726   0.28514   1.000
    C78     C    0.03967   0.70372   0.29797   1.000
    C79     C    0.96935   0.68882   0.25490   1.000
    C80     C    0.86963   0.70899   0.26544   1.000
    C81     C    0.84544   0.74235   0.32089   1.000
    C82     C    0.00819   0.73587   0.35213   1.000
    C83     C    0.79213   0.69795   0.22109   1.000
    C84     C    0.69352   0.68432   0.23740   1.000
    C85     C    0.61853   0.67770   0.19637   1.000
    C86     C    0.64207   0.68216   0.13758   1.000
    C87     C    0.73995   0.69481   0.12070   1.000
    C88     C    0.81435   0.70342   0.16190   1.000
    C89     C    0.51331   0.66892   0.21596   1.000
    C90     C    0.18717   0.35241   0.03516   1.000
    C91     C    0.20361   0.46029   0.04801   1.000
    C92     C    0.18858   0.53065   0.00498   1.000
    C93     C    0.20869   0.63038   0.01552   1.000
    C94     C    0.24215   0.65456   0.07093   1.000
    C95     C    0.23584   0.49176   0.10214   1.000
    C96     C    0.19766   0.70786   0.97119   1.000
    C97     C    0.18404   0.80645   0.98750   1.000
    C98     C    0.17747   0.88142   0.94646   1.000
    C99     C    0.18196   0.85788   0.88760   1.000
    C100    C    0.19457   0.76001   0.87080   1.000
    C101    C    0.20309   0.68563   0.91200   1.000
    C102    C    0.16883   0.98664   0.96604   1.000
    C103    C    0.81276   0.64755   0.53516   1.000
    C104    C    0.79641   0.53968   0.54802   1.000
    C105    C    0.81142   0.46927   0.50496   1.000
    C106    C    0.79137   0.36955   0.51551   1.000
    C107    C    0.75801   0.34543   0.57096   1.000
    C108    C    0.76428   0.50826   0.60218   1.000
    C109    C    0.80240   0.29200   0.47115   1.000
    C110    C    0.81600   0.19344   0.48747   1.000
    C111    C    0.82253   0.11838   0.44643   1.000
    C112    C    0.81805   0.14180   0.38765   1.000
    C113    C    0.80546   0.23963   0.37077   1.000
    C114    C    0.79696   0.31410   0.41197   1.000
    C115    C    0.83117   0.01320   0.46601   1.000
    C116    C    0.64754   0.81273   0.46485   1.000
    C117    C    0.53966   0.79627   0.45202   1.000
    C118    C    0.46923   0.81119   0.49509   1.000
    C119    C    0.36950   0.79114   0.48450   1.000
    C120    C    0.34540   0.75775   0.42910   1.000
    C121    C    0.50823   0.76418   0.39785   1.000
    C122    C    0.29193   0.80212   0.52891   1.000
    C123    C    0.19337   0.81581   0.51259   1.000
    C124    C    0.11830   0.82241   0.55362   1.000
    C125    C    0.14172   0.81793   0.61241   1.000
    C126    C    0.23955   0.80525   0.62929   1.000
    C127    C    0.31403   0.79670   0.58800   1.000
    C128    C    0.01312   0.83113   0.53404   1.000
    C129    C    0.35240   0.18723   0.96486   1.000
    C130    C    0.46028   0.20376   0.95203   1.000
    C131    C    0.53063   0.18883   0.99508   1.000
    C132    C    0.63037   0.20899   0.98455   1.000
    C133    C    0.65455   0.24241   0.92912   1.000
    C134    C    0.49177   0.23596   0.89789   1.000
    C135    C    0.70785   0.19798   0.02888   1.000
    C136    C    0.80645   0.18427   0.01257   1.000
    C137    C    0.88143   0.17763   0.05360   1.000
    C138    C    0.85788   0.18212   0.11239   1.000
    C139    C    0.76001   0.19484   0.12927   1.000
    C140    C    0.68562   0.20340   0.08807   1.000
    C141    C    0.98665   0.16890   0.03401   1.000
    C142    C    0.31279   0.85247   0.21482   1.000
    C143    C    0.29635   0.96033   0.20198   1.000
    C144    C    0.31136   0.03076   0.24502   1.000
    C145    C    0.29128   0.13046   0.23448   1.000
    C146    C    0.25781   0.15455   0.17907   1.000
    C147    C    0.26412   0.99172   0.14785   1.000
    C148    C    0.30232   0.20802   0.27880   1.000
    C149    C    0.31592   0.30659   0.26252   1.000
    C150    C    0.32246   0.38164   0.30355   1.000
    C151    C    0.31802   0.35820   0.36234   1.000
    C152    C    0.30544   0.26035   0.37920   1.000
    C153    C    0.29690   0.18589   0.33800   1.000
    C154    C    0.33117   0.48682   0.28398   1.000
    C155    C    0.68718   0.14758   0.71486   1.000
    C156    C    0.70354   0.03970   0.70202   1.000
    C157    C    0.68854   0.96936   0.74508   1.000
    C158    C    0.70864   0.86964   0.73450   1.000
    C159    C    0.74205   0.84546   0.67909   1.000
    C160    C    0.73571   0.00822   0.64786   1.000
    C161    C    0.69764   0.79215   0.77889   1.000
    C162    C    0.68404   0.69356   0.76258   1.000
    C163    C    0.67751   0.61856   0.80361   1.000
    C164    C    0.68196   0.64209   0.86240   1.000
    C165    C    0.69455   0.73997   0.87928   1.000
    C166    C    0.70306   0.81437   0.83808   1.000
    C167    C    0.66889   0.51335   0.78403   1.000
    C168    C    0.08759   0.24602   0.86325   1.000
    C169    C    0.91231   0.75387   0.36323   1.000
    C170    C    0.25380   0.58768   0.11324   1.000
    C171    C    0.74638   0.41235   0.61329   1.000
    C172    C    0.41232   0.74625   0.38674   1.000
    C173    C    0.58768   0.25397   0.88600   1.000
    C174    C    0.24619   0.08761   0.13675   1.000
    C175    C    0.75365   0.91232   0.63676   1.000
    C176    C    0.79087   0.28276   0.82258   1.000
    C177    C    0.83325   0.35359   0.73724   1.000
    C178    C    0.50245   0.32534   0.77010   1.000
    C179    C    0.55202   0.34191   0.67710   1.000
    C180    C    0.20909   0.71725   0.32254   1.000
    C181    C    0.16685   0.64634   0.23718   1.000
    C182    C    0.49763   0.67477   0.27008   1.000
    C183    C    0.44819   0.65813   0.17707   1.000
    C184    C    0.21717   0.29089   0.07254   1.000
    C185    C    0.14630   0.33313   0.98723   1.000
    C186    C    0.17465   0.00232   0.02015   1.000
    C187    C    0.15807   0.05174   0.92715   1.000
    C188    C    0.78274   0.70910   0.57250   1.000
    C189    C    0.85360   0.66681   0.48718   1.000
    C190    C    0.82529   0.99760   0.52013   1.000
    C191    C    0.84193   0.94805   0.42711   1.000
    C192    C    0.70911   0.78273   0.42744   1.000
    C193    C    0.66679   0.85356   0.51283   1.000
    C194    C    0.99755   0.82532   0.47992   1.000
    C195    C    0.94798   0.84195   0.57294   1.000
    C196    C    0.29086   0.21719   0.92747   1.000
    C197    C    0.33312   0.14635   0.01279   1.000
    C198    C    0.00229   0.17466   0.97990   1.000
    C199    C    0.05173   0.15808   0.07289   1.000
    C200    C    0.28278   0.79089   0.17740   1.000
    C201    C    0.35363   0.83323   0.26277   1.000
    C202    C    0.32533   0.50245   0.22980   1.000
    C203    C    0.34190   0.55198   0.32289   1.000
    C204    C    0.71723   0.20909   0.67747   1.000
    C205    C    0.64630   0.16687   0.76283   1.000
    C206    C    0.67477   0.49768   0.72990   1.000
    C207    C    0.65812   0.44823   0.82290   1.000
    O208    O    0.19863   0.58052   0.01025   1.000
    O209    O    0.19609   0.49547   0.02649   1.000
    O210    O    0.17471   0.51805   0.98421   1.000
    O211    O    0.75715   0.19113   0.02073   1.000
    O212    O    0.84394   0.18095   0.03309   1.000
    O213    O    0.81684   0.18106   0.98999   1.000
    O214    O    0.26629   0.14199   0.03503   1.000
    O215    O    0.34276   0.16679   0.98882   1.000
    O216    O    0.22542   0.64247   0.04323   1.000
    O217    O    0.20318   0.66912   0.99335   1.000
    O218    O    0.18705   0.06997   0.03871   1.000
    O219    O    0.17174   0.99448   0.99310   1.000
    O220    O    0.69674   0.20069   0.05847   1.000
    O221    O    0.66911   0.20349   0.00672   1.000
    O222    O    0.18083   0.81684   0.01008   1.000
    O223    O    0.93404   0.17327   0.04380   1.000
    O224    O    0.01919   0.16349   0.05345   1.000
    O225    O    0.99447   0.17178   0.00696   1.000
    O226    O    0.19539   0.40635   0.04159   1.000
    O227    O    0.20217   0.32165   0.05385   1.000
    O228    O    0.16674   0.34277   0.01120   1.000
    O229    O    0.51803   0.17498   0.01585   1.000
    O230    O    0.21972   0.47603   0.07508   1.000
    O231    O    0.86966   0.17988   0.08300   1.000
    O232    O    0.20831   0.21426   0.06491   1.000
    O233    O    0.12559   0.14785   0.06508   1.000
    O234    O    0.22282   0.11262   0.09702   1.000
    O235    O    0.25169   0.69221   0.07678   1.000
    O236    O    0.24797   0.62112   0.09209   1.000
    O237    O    0.74929   0.69709   0.09786   1.000
    O238    O    0.64782   0.20986   0.09507   1.000
    O239    O    0.72281   0.19912   0.10867   1.000
    O240    O    0.24482   0.53972   0.10769   1.000
    O241    O    0.24192   0.46605   0.11977   1.000
    O242    O    0.61250   0.67931   0.12180   1.000
    O243    O    0.80894   0.18848   0.12083   1.000
    O244    O    0.88744   0.17929   0.12817   1.000
    O245    O    0.25807   0.96599   0.13022   1.000
    O246    O    0.27716   0.61267   0.15298   1.000
    O247    O    0.69101   0.68848   0.12914   1.000
    O248    O    0.77715   0.69911   0.14130   1.000
    O249    O    0.75066   0.19711   0.15211   1.000
    O250    O    0.25515   0.03967   0.14230   1.000
    O251    O    0.25200   0.12108   0.15791   1.000
    O252    O    0.63030   0.67993   0.16698   1.000
    O253    O    0.28024   0.97603   0.17492   1.000
    O254    O    0.85216   0.70986   0.15490   1.000
    O255    O    0.80324   0.70068   0.19150   1.000
    O256    O    0.24826   0.19218   0.17324   1.000
    O257    O    0.37436   0.64790   0.18490   1.000
    O258    O    0.48075   0.66353   0.19652   1.000
    O259    O    0.29165   0.71428   0.18506   1.000
    O260    O    0.29778   0.82168   0.19611   1.000
    O261    O    0.27454   0.14250   0.20678   1.000
    O262    O    0.31292   0.57006   0.21126   1.000
    O263    O    0.23368   0.64200   0.21495   1.000
    O264    O    0.56592   0.67331   0.20617   1.000
    O265    O    0.65603   0.68101   0.21689   1.000
    O266    O    0.30457   0.90640   0.20840   1.000
    O267    O    0.30386   0.99555   0.22350   1.000
    O268    O    0.98195   0.67498   0.23411   1.000
    O269    O    0.33321   0.84285   0.23880   1.000
    O270    O    0.50547   0.67184   0.24302   1.000
    O271    O    0.31912   0.31694   0.23993   1.000
    O272    O    0.74283   0.69113   0.22925   1.000
    O273    O    0.83088   0.70347   0.24327   1.000
    O274    O    0.32825   0.49464   0.25689   1.000
    O275    O    0.30132   0.08061   0.23975   1.000
    O276    O    0.29680   0.16924   0.25664   1.000
    O277    O    0.15720   0.66680   0.26116   1.000
    O278    O    0.68313   0.68110   0.25999   1.000
    O279    O    0.32523   0.01819   0.26576   1.000
    O280    O    0.91949   0.69890   0.26017   1.000
    O281    O    0.00451   0.69627   0.27644   1.000
    O282    O    0.30912   0.25730   0.27066   1.000
    O283    O    0.31919   0.34411   0.28304   1.000
    O284    O    0.35799   0.76640   0.28501   1.000
    O285    O    0.85753   0.72567   0.29317   1.000
    O286    O    0.42999   0.68717   0.28867   1.000
    O287    O    0.29961   0.19695   0.30840   1.000
    O288    O    0.32682   0.43423   0.29377   1.000
    O289    O    0.33654   0.51940   0.30344   1.000
    O290    O    0.09361   0.69549   0.29156   1.000
    O291    O    0.17832   0.70225   0.30384   1.000
    O292    O    0.02393   0.71979   0.32505   1.000
    O293    O    0.32024   0.36992   0.33295   1.000
    O294    O    0.28572   0.70841   0.31490   1.000
    O295    O    0.35213   0.62578   0.31507   1.000
    O296    O    0.38733   0.72291   0.34700   1.000
    O297    O    0.80780   0.75193   0.32674   1.000
    O298    O    0.87887   0.74811   0.34206   1.000
    O299    O    0.80317   0.24893   0.34793   1.000
    O300    O    0.29048   0.14810   0.34502   1.000
    O301    O    0.30117   0.22312   0.35860   1.000
    O302    O    0.96025   0.74487   0.35768   1.000
    O303    O    0.03390   0.74189   0.36977   1.000
    O304    O    0.82085   0.11220   0.37187   1.000
    O305    O    0.31173   0.30927   0.37077   1.000
    O306    O    0.32083   0.38779   0.37812   1.000
    O307    O    0.53397   0.75816   0.38021   1.000
    O308    O    0.88732   0.77717   0.40299   1.000
    O309    O    0.81175   0.19072   0.37921   1.000
    O310    O    0.80121   0.27687   0.39137   1.000
    O311    O    0.30316   0.25105   0.40205   1.000
    O312    O    0.46028   0.75521   0.39230   1.000
    O313    O    0.37886   0.75200   0.40792   1.000
    O314    O    0.82029   0.13009   0.41704   1.000
    O315    O    0.52395   0.78023   0.42493   1.000
    O316    O    0.79053   0.35189   0.40497   1.000
    O317    O    0.79968   0.30305   0.44156   1.000
    O318    O    0.30775   0.74821   0.42325   1.000
    O319    O    0.85214   0.87425   0.43493   1.000
    O320    O    0.83655   0.98062   0.44656   1.000
    O321    O    0.78572   0.79159   0.43509   1.000
    O322    O    0.67832   0.79773   0.44614   1.000
    O323    O    0.35745   0.77445   0.45680   1.000
    O324    O    0.92994   0.81289   0.46133   1.000
    O325    O    0.85797   0.73363   0.46496   1.000
    O326    O    0.82685   0.06579   0.45622   1.000
    O327    O    0.81927   0.15591   0.46695   1.000
    O328    O    0.59360   0.80450   0.45844   1.000
    O329    O    0.50445   0.80373   0.47356   1.000
    O330    O    0.82524   0.48185   0.48413   1.000
    O331    O    0.65716   0.83314   0.48884   1.000
    O332    O    0.82823   0.00540   0.49307   1.000
    O333    O    0.18303   0.81902   0.49001   1.000
    O334    O    0.80920   0.24272   0.47931   1.000
    O335    O    0.79688   0.33077   0.49333   1.000
    O336    O    0.00534   0.82822   0.50698   1.000
    O337    O    0.41937   0.80117   0.48980   1.000
    O338    O    0.33072   0.79663   0.50671   1.000
    O339    O    0.83318   0.65718   0.51117   1.000
    O340    O    0.81921   0.18309   0.51006   1.000
    O341    O    0.48181   0.82502   0.51588   1.000
    O342    O    0.80139   0.41941   0.51023   1.000
    O343    O    0.80392   0.50447   0.52649   1.000
    O344    O    0.24265   0.80896   0.52075   1.000
    O345    O    0.15584   0.81911   0.53310   1.000
    O346    O    0.73361   0.85795   0.53505   1.000
    O347    O    0.77469   0.35749   0.54324   1.000
    O348    O    0.81286   0.92997   0.53870   1.000
    O349    O    0.30298   0.79941   0.55846   1.000
    O350    O    0.06571   0.82677   0.54383   1.000
    O351    O    0.98055   0.83654   0.55349   1.000
    O352    O    0.80459   0.59362   0.54159   1.000
    O353    O    0.79775   0.67833   0.55383   1.000
    O354    O    0.78035   0.52397   0.57510   1.000
    O355    O    0.13001   0.82017   0.58302   1.000
    O356    O    0.79158   0.78573   0.56489   1.000
    O357    O    0.87420   0.85215   0.56511   1.000
    O358    O    0.77704   0.88733   0.59702   1.000
    O359    O    0.74847   0.30778   0.57681   1.000
    O360    O    0.75220   0.37889   0.59213   1.000
    O361    O    0.25109   0.30295   0.59792   1.000
    O362    O    0.35182   0.79025   0.59500   1.000
    O363    O    0.27679   0.80097   0.60864   1.000
    O364    O    0.75533   0.46031   0.60774   1.000
    O365    O    0.75822   0.53399   0.61982   1.000
    O366    O    0.38783   0.32073   0.62186   1.000
    O367    O    0.19063   0.81159   0.62085   1.000
    O368    O    0.11212   0.82076   0.62819   1.000
    O369    O    0.74177   0.03394   0.63023   1.000
    O370    O    0.72300   0.38736   0.65303   1.000
    O371    O    0.30931   0.31155   0.62920   1.000
    O372    O    0.22315   0.30092   0.64135   1.000
    O373    O    0.24884   0.80297   0.65213   1.000
    O374    O    0.74468   0.96027   0.64231   1.000
    O375    O    0.74785   0.87889   0.65793   1.000
    O376    O    0.36995   0.32012   0.66703   1.000
    O377    O    0.71963   0.02396   0.67494   1.000
    O378    O    0.14812   0.29017   0.65494   1.000
    O379    O    0.19697   0.29932   0.69155   1.000
    O380    O    0.75161   0.80782   0.67324   1.000
    O381    O    0.62581   0.35214   0.68493   1.000
    O382    O    0.51943   0.33652   0.69655   1.000
    O383    O    0.70842   0.28573   0.68512   1.000
    O384    O    0.70221   0.17833   0.69617   1.000
    O385    O    0.72535   0.85755   0.70679   1.000
    O386    O    0.68719   0.43002   0.71133   1.000
    O387    O    0.76643   0.35798   0.71500   1.000
    O388    O    0.43425   0.32674   0.70621   1.000
    O389    O    0.34413   0.31903   0.71691   1.000
    O390    O    0.69536   0.09364   0.70844   1.000
    O391    O    0.69604   0.00453   0.72355   1.000
    O392    O    0.01818   0.32497   0.73419   1.000
    O393    O    0.66674   0.15722   0.73884   1.000
    O394    O    0.49465   0.32823   0.74305   1.000
    O395    O    0.68084   0.68317   0.74000   1.000
    O396    O    0.25731   0.30887   0.72927   1.000
    O397    O    0.16923   0.29651   0.74332   1.000
    O398    O    0.67183   0.50551   0.75697   1.000
    O399    O    0.69859   0.91950   0.73979   1.000
    O400    O    0.70314   0.83090   0.75670   1.000
    O401    O    0.84286   0.33315   0.76121   1.000
    O402    O    0.31694   0.31891   0.76002   1.000
    O403    O    0.67469   0.98196   0.76584   1.000
    O404    O    0.08059   0.30106   0.76023   1.000
    O405    O    0.99554   0.30367   0.77649   1.000
    O406    O    0.69084   0.74285   0.77074   1.000
    O407    O    0.68077   0.65606   0.78310   1.000
    O408    O    0.64199   0.23371   0.78506   1.000
    O409    O    0.14249   0.27428   0.79320   1.000
    O410    O    0.57007   0.31294   0.78870   1.000
    O411    O    0.70035   0.80326   0.80849   1.000
    O412    O    0.67320   0.56596   0.79382   1.000
    O413    O    0.66350   0.48079   0.80346   1.000
    O414    O    0.90640   0.30446   0.79160   1.000
    O415    O    0.82167   0.29774   0.80388   1.000
    O416    O    0.97603   0.28012   0.82509   1.000
    O417    O    0.67973   0.63033   0.83301   1.000
    O418    O    0.71427   0.29165   0.81494   1.000
    O419    O    0.64790   0.37439   0.81510   1.000
    O420    O    0.61268   0.27726   0.84665   1.000
    O421    O    0.19217   0.24801   0.82671   1.000
    O422    O    0.12106   0.25180   0.84208   1.000
    O423    O    0.19686   0.75068   0.84797   1.000
    O424    O    0.70948   0.85218   0.84508   1.000
    O425    O    0.69880   0.77717   0.85868   1.000
    O426    O    0.03966   0.25503   0.85771   1.000
    O427    O    0.96599   0.25800   0.86980   1.000
    O428    O    0.17915   0.88745   0.87186   1.000
    O429    O    0.68826   0.69103   0.87084   1.000
    O430    O    0.67916   0.61252   0.87818   1.000
    O431    O    0.46605   0.24199   0.88026   1.000
    O432    O    0.11260   0.22274   0.90300   1.000
    O433    O    0.18827   0.80895   0.87920   1.000
    O434    O    0.19883   0.72282   0.89140   1.000
    O435    O    0.69683   0.74930   0.90211   1.000
    O436    O    0.53973   0.24497   0.89194   1.000
    O437    O    0.62112   0.24819   0.90756   1.000
    O438    O    0.17972   0.86965   0.91703   1.000
    O439    O    0.20952   0.64783   0.90100   1.000
    O440    O    0.47602   0.21986   0.92496   1.000
    O441    O    0.20037   0.69674   0.94160   1.000
    O442    O    0.69220   0.25199   0.92328   1.000
    O443    O    0.14784   0.12559   0.93495   1.000
    O444    O    0.16345   0.01919   0.94660   1.000
    O445    O    0.21424   0.20832   0.93511   1.000
    O446    O    0.32163   0.20221   0.94617   1.000
    O447    O    0.64246   0.22570   0.95684   1.000
    O448    O    0.06995   0.18705   0.96132   1.000
    O449    O    0.14196   0.26629   0.96499   1.000
    O450    O    0.17315   0.93403   0.95625   1.000
    O451    O    0.18075   0.84393   0.96698   1.000
    O452    O    0.40634   0.19550   0.95845   1.000
    O453    O    0.49546   0.19630   0.97356   1.000
    O454    O    0.19085   0.75715   0.97935   1.000
    O455    O    0.58050   0.19891   0.98982   1.000
    O456    O    0.16854   0.16854   0.00001   1.000
    O457    O    0.83138   0.83140   0.50001   1.000
    O458    O    0.33143   0.66862   0.24999   1.000
    O459    O    0.66864   0.33145   0.75002   1.000
loop_
    _geom_bond_atom_site_label_1
    _geom_bond_atom_site_label_2
    _geom_bond_distance
    _geom_bond_site_symmetry_2
    _ccdc_geom_bond_type
    C92    O208      0.70096      .   S
    C93    O208      0.70096      .   S
    C92    O209      0.69824      .   S
    C91    O209      0.69824      .   S
    C92    O210      0.54457  1_554   S
    C22    O210      0.54457      .   S
    C136   O211      0.70122      .   S
    C135   O211      0.70122      .   S
    C136   O212      0.69816      .   S
    C137   O212      0.69816      .   S
    C136   O213      0.54397  1_554   S
    C46    O213      0.54397      .   S
    C197   O214      1.04470      .   S
    C6     O214      1.04470      .   S
    C197   O215      0.63474  1_554   S
    C129   O215      0.63474      .   S
    C93    O216      0.70082      .   S
    C94    O216      0.70082      .   S
    C93    O217      0.73923  1_554   S
    C96    O217      0.73923      .   S
    C186   O218      1.02772      .   S
    C6     O218      1.02772      .   S
    C186   O219      0.63748  1_544   S
    C102   O219      0.63748      .   S
    C135   O220      0.70346      .   S
    C140   O220      0.70346      .   S
    C135   O221      0.73924      .   S
    C132   O221      0.73924  1_556   S
    C25    O222      0.54388      .   S
    C97    O222      0.54388  1_556   S
    C141   O223      0.75136      .   S
    C137   O223      0.75136      .   S
    C141   O224      0.63545  1_655   S
    C199   O224      0.63545      .   S
    C141   O225      0.63739      .   S
    C198   O225      0.63739  1_456   S
    C90    O226      0.75521      .   S
    C91    O226      0.75521      .   S
    C90    O227      0.63547      .   S
    C184   O227      0.63547      .   S
    C90    O228      0.63472      .   S
    C185   O228      0.63472  1_556   S
    C43    O229      0.54452      .   S
    C131   O229      0.54452  1_556   S
    C91    O230      0.69804      .   S
    C95    O230      0.69804      .   S
    C137   O231      0.70062      .   S
    C138   O231      0.70062      .   S
    C6     O232      1.06163      .   S
    C184   O232      1.06163      .   S
    C6     O233      1.02776      .   S
    C199   O233      1.02776      .   S
    C6     O234      1.03211      .   S
    C174   O234      1.03211      .   S
    C94    O235      0.54418      .   S
    C23    O235      0.54418      .   S
    C94    O236      0.67313      .   S
    C170   O236      0.67313      .   S
    C20    O237      0.54525      .   S
    C87    O237      0.54525      .   S
    C140   O238      0.54504      .   S
    C49    O238      0.54504      .   S
    C140   O239      0.69753      .   S
    C139   O239      0.69753      .   S
    C95    O240      0.67443      .   S
    C170   O240      0.67443      .   S
    C95    O241      0.54386      .   S
    C24    O241      0.54386      .   S
    C19    O242      0.54449      .   S
    C86    O242      0.54449      .   S
    C138   O243      0.69751      .   S
    C139   O243      0.69751      .   S
    C138   O244      0.54448      .   S
    C47    O244      0.54448      .   S
    C52    O245      0.54389      .   S
    C147   O245      0.54389      .   S
    C170   O246      1.03178      .   S
    C2     O246      1.03178      .   S
    C87    O247      0.69750      .   S
    C86    O247      0.69750      .   S
    C87    O248      0.69753      .   S
    C88    O248      0.69753      .   S
    C139   O249      0.54523      .   S
    C48    O249      0.54523      .   S
    C174   O250      0.67445      .   S
    C147   O250      0.67445  1_565   S
    C174   O251      0.67307      .   S
    C146   O251      0.67307      .   S
    C86    O252      0.70062      .   S
    C85    O252      0.70062      .   S
    C147   O253      0.69808      .   S
    C143   O253      0.69808      .   S
    C21    O254      0.54504      .   S
    C88    O254      0.54504      .   S
    C88    O255      0.70348      .   S
    C83    O255      0.70348      .   S
    C51    O256      0.54414      .   S
    C146   O256      0.54414      .   S
    C183   O257      1.02750      .   S
    C2     O257      1.02750      .   S
    C183   O258      0.63563      .   S
    C89    O258      0.63563      .   S
    C200   O259      1.06171      .   S
    C2     O259      1.06171      .   S
    C200   O260      0.63572      .   S
    C142   O260      0.63572      .   S
    C146   O261      0.70087      .   S
    C145   O261      0.70087      .   S
    C2     O262      1.02738      .   S
    C202   O262      1.02738      .   S
    C2     O263      1.04453      .   S
    C181   O263      1.04453      .   S
    C85    O264      0.75134      .   S
    C89    O264      0.75134      .   S
    C85    O265      0.69816      .   S
    C84    O265      0.69816      .   S
    C143   O266      0.75529      .   S
    C142   O266      0.75529      .   S
    C143   O267      0.69823      .   S
    C144   O267      0.69823  1_545   S
    C15    O268      0.54469      .   S
    C79    O268      0.54469      .   S
    C142   O269      0.63493      .   S
    C201   O269      0.63493      .   S
    C89    O270      0.63755      .   S
    C182   O270      0.63755      .   S
    C53    O271      0.54409      .   S
    C149   O271      0.54409      .   S
    C83    O272      0.70124      .   S
    C84    O272      0.70124      .   S
    C83    O273      0.73937      .   S
    C80    O273      0.73937      .   S
    C202   O274      0.63833      .   S
    C154   O274      0.63833      .   S
    C145   O275      0.70097      .   S
    C144   O275      0.70097      .   S
    C145   O276      0.73912      .   S
    C148   O276      0.73912      .   S
    C181   O277      0.63497      .   S
    C77    O277      0.63497      .   S
    C84    O278      0.54401      .   S
    C18    O278      0.54401      .   S
    C144   O279      0.54401      .   S
    C50    O279      0.54401      .   S
    C79    O280      0.70096      .   S
    C80    O280      0.70096      .   S
    C79    O281      0.69812  1_655   S
    C78    O281      0.69812      .   S
    C149   O282      0.70113      .   S
    C148   O282      0.70113      .   S
    C149   O283      0.69813      .   S
    C150   O283      0.69813      .   S
    C201   O284      1.04520      .   S
    C4     O284      1.04520      .   S
    C80    O285      0.70085      .   S
    C81    O285      0.70085      .   S
    C182   O286      1.02760      .   S
    C4     O286      1.02760      .   S
    C148   O287      0.70357      .   S
    C153   O287      0.70357      .   S
    C154   O288      0.75132      .   S
    C150   O288      0.75132      .   S
    C154   O289      0.63567      .   S
    C203   O289      0.63567      .   S
    C77    O290      0.75515      .   S
    C78    O290      0.75515      .   S
    C77    O291      0.63540      .   S
    C180   O291      0.63540      .   S
    C78    O292      0.69800      .   S
    C82    O292      0.69800      .   S
    C150   O293      0.70061      .   S
    C151   O293      0.70061      .   S
    C4     O294      1.06153      .   S
    C180   O294      1.06153      .   S
    C4     O295      1.02727      .   S
    C203   O295      1.02727      .   S
    C4     O296      1.03176      .   S
    C172   O296      1.03176      .   S
    C81    O297      0.54417      .   S
    C16    O297      0.54417      .   S
    C81    O298      0.67311      .   S
    C169   O298      0.67311      .   S
    C34    O299      0.54525      .   S
    C113   O299      0.54525      .   S
    C153   O300      0.54514      .   S
    C56    O300      0.54514      .   S
    C153   O301      0.69753      .   S
    C152   O301      0.69753      .   S
    C82    O302      0.67420  1_455   S
    C169   O302      0.67420      .   S
    C82    O303      0.54387      .   S
    C17    O303      0.54387      .   S
    C33    O304      0.54451      .   S
    C112   O304      0.54451      .   S
    C151   O305      0.69742      .   S
    C152   O305      0.69742      .   S
    C151   O306      0.54450      .   S
    C54    O306      0.54450      .   S
    C38    O307      0.54386      .   S
    C121   O307      0.54386      .   S
    C169   O308      1.03148      .   S
    C1     O308      1.03148      .   S
    C113   O309      0.69749      .   S
    C112   O309      0.69749      .   S
    C113   O310      0.69753      .   S
    C114   O310      0.69753      .   S
    C152   O311      0.54545      .   S
    C55    O311      0.54545      .   S
    C172   O312      0.67446      .   S
    C121   O312      0.67446      .   S
    C172   O313      0.67315      .   S
    C120   O313      0.67315      .   S
    C112   O314      0.70051      .   S
    C111   O314      0.70051      .   S
    C121   O315      0.69806      .   S
    C117   O315      0.69806      .   S
    C35    O316      0.54505      .   S
    C114   O316      0.54505      .   S
    C114   O317      0.70338      .   S
    C109   O317      0.70338      .   S
    C37    O318      0.54417      .   S
    C120   O318      0.54417      .   S
    C191   O319      1.02725      .   S
    C1     O319      1.02725      .   S
    C191   O320      0.63558      .   S
    C115   O320      0.63558  1_545   S
    C192   O321      1.06151      .   S
    C1     O321      1.06151      .   S
    C192   O322      0.63543      .   S
    C116   O322      0.63543      .   S
    C120   O323      0.70040      .   S
    C119   O323      0.70040      .   S
    C1     O324      1.02767      .   S
    C194   O324      1.02767      .   S
    C1     O325      1.04486      .   S
    C189   O325      1.04486      .   S
    C111   O326      0.75131      .   S
    C115   O326      0.75131      .   S
    C111   O327      0.69820      .   S
    C110   O327      0.69820      .   S
    C117   O328      0.75522      .   S
    C116   O328      0.75522      .   S
    C117   O329      0.69824      .   S
    C118   O329      0.69824      .   S
    C29    O330      0.54548      .   S
    C105   O330      0.54548      .   S
    C116   O331      0.63494      .   S
    C193   O331      0.63494      .   S
    C115   O332      0.63759      .   S
    C190   O332      0.63759  1_565   S
    C39    O333      0.54401      .   S
    C123   O333      0.54401      .   S
    C109   O334      0.70126      .   S
    C110   O334      0.70126      .   S
    C109   O335      0.73941      .   S
    C106   O335      0.73941      .   S
    C194   O336      0.63754  1_655   S
    C128   O336      0.63754      .   S
    C119   O337      0.70103      .   S
    C118   O337      0.70103      .   S
    C119   O338      0.73976      .   S
    C122   O338      0.73976      .   S
    C189   O339      0.63495      .   S
    C103   O339      0.63495      .   S
    C110   O340      0.54402      .   S
    C32    O340      0.54402      .   S
    C118   O341      0.54471      .   S
    C36    O341      0.54471      .   S
    C105   O342      0.70095      .   S
    C106   O342      0.70095      .   S
    C105   O343      0.69825      .   S
    C104   O343      0.69825      .   S
    C123   O344      0.70125      .   S
    C122   O344      0.70125      .   S
    C123   O345      0.69815      .   S
    C124   O345      0.69815      .   S
    C193   O346      1.04475      .   S
    C7     O346      1.04475      .   S
    C106   O347      0.70087      .   S
    C107   O347      0.70087      .   S
    C190   O348      1.02778      .   S
    C7     O348      1.02778      .   S
    C122   O349      0.70234      .   S
    C127   O349      0.70234      .   S
    C128   O350      0.75129      .   S
    C124   O350      0.75129      .   S
    C128   O351      0.63548  1_455   S
    C195   O351      0.63548      .   S
    C103   O352      0.75522      .   S
    C104   O352      0.75522      .   S
    C103   O353      0.63489      .   S
    C188   O353      0.63489      .   S
    C104   O354      0.69799      .   S
    C108   O354      0.69799      .   S
    C124   O355      0.70062      .   S
    C125   O355      0.70062      .   S
    C7     O356      1.06156      .   S
    C188   O356      1.06156      .   S
    C7     O357      1.02696      .   S
    C195   O357      1.02696      .   S
    C7     O358      1.03169      .   S
    C175   O358      1.03169      .   S
    C107   O359      0.54415      .   S
    C30    O359      0.54415      .   S
    C107   O360      0.67308      .   S
    C171   O360      0.67308      .   S
    C13    O361      0.54522      .   S
    C74    O361      0.54522      .   S
    C127   O362      0.54505      .   S
    C42    O362      0.54505      .   S
    C127   O363      0.69825      .   S
    C126   O363      0.69825      .   S
    C108   O364      0.67446      .   S
    C171   O364      0.67446      .   S
    C108   O365      0.54384      .   S
    C31    O365      0.54384      .   S
    C12    O366      0.54450      .   S
    C73    O366      0.54450      .   S
    C125   O367      0.69749      .   S
    C126   O367      0.69749      .   S
    C125   O368      0.54450      .   S
    C40    O368      0.54450      .   S
    C59    O369      0.54380      .   S
    C160   O369      0.54380      .   S
    C171   O370      1.03177      .   S
    C3     O370      1.03177      .   S
    C74    O371      0.69751      .   S
    C73    O371      0.69751      .   S
    C74    O372      0.69754      .   S
    C75    O372      0.69754      .   S
    C126   O373      0.54524      .   S
    C41    O373      0.54524      .   S
    C175   O374      0.67436      .   S
    C160   O374      0.67436  1_545   S
    C175   O375      0.67308      .   S
    C159   O375      0.67308      .   S
    C73    O376      0.70049      .   S
    C72    O376      0.70049      .   S
    C160   O377      0.69803      .   S
    C156   O377      0.69803      .   S
    C14    O378      0.54507      .   S
    C75    O378      0.54507      .   S
    C75    O379      0.70345      .   S
    C70    O379      0.70345      .   S
    C58    O380      0.54415      .   S
    C159   O380      0.54415      .   S
    C179   O381      1.02713      .   S
    C3     O381      1.02713      .   S
    C179   O382      0.63564      .   S
    C76    O382      0.63564      .   S
    C204   O383      1.06174      .   S
    C3     O383      1.06174      .   S
    C204   O384      0.63540      .   S
    C155   O384      0.63540      .   S
    C159   O385      0.70052      .   S
    C158   O385      0.70052      .   S
    C3     O386      1.02780      .   S
    C206   O386      1.02780      .   S
    C3     O387      1.04509      .   S
    C177   O387      1.04509      .   S
    C72    O388      0.75132      .   S
    C76    O388      0.75132      .   S
    C72    O389      0.69775      .   S
    C71    O389      0.69775      .   S
    C156   O390      0.75513      .   S
    C155   O390      0.75513      .   S
    C156   O391      0.69825      .   S
    C157   O391      0.69825  1_565   S
    C8     O392      0.54461      .   S
    C66    O392      0.54461      .   S
    C155   O393      0.63492      .   S
    C205   O393      0.63492      .   S
    C76    O394      0.63738      .   S
    C178   O394      0.63738      .   S
    C60    O395      0.54401      .   S
    C162   O395      0.54401      .   S
    C70    O396      0.70106      .   S
    C71    O396      0.70106      .   S
    C70    O397      0.73939      .   S
    C67    O397      0.73939      .   S
    C206   O398      0.63768      .   S
    C167   O398      0.63768      .   S
    C158   O399      0.70102      .   S
    C157   O399      0.70102      .   S
    C158   O400      0.73965      .   S
    C161   O400      0.73965      .   S
    C177   O401      0.63491      .   S
    C64    O401      0.63491      .   S
    C71    O402      0.54464      .   S
    C11    O402      0.54464      .   S
    C157   O403      0.54412      .   S
    C57    O403      0.54412      .   S
    C66    O404      0.70096      .   S
    C67    O404      0.70096      .   S
    C66    O405      0.69813  1_455   S
    C65    O405      0.69813      .   S
    C162   O406      0.70124      .   S
    C161   O406      0.70124      .   S
    C162   O407      0.69814      .   S
    C163   O407      0.69814      .   S
    C205   O408      1.04466      .   S
    C5     O408      1.04466      .   S
    C67    O409      0.70086      .   S
    C68    O409      0.70086      .   S
    C178   O410      1.02787      .   S
    C5     O410      1.02787      .   S
    C161   O411      0.70349      .   S
    C166   O411      0.70349      .   S
    C167   O412      0.75132      .   S
    C163   O412      0.75132      .   S
    C167   O413      0.63546      .   S
    C207   O413      0.63546      .   S
    C64    O414      0.75528      .   S
    C65    O414      0.75528      .   S
    C64    O415      0.63546      .   S
    C176   O415      0.63546      .   S
    C65    O416      0.69809      .   S
    C69    O416      0.69809      .   S
    C163   O417      0.70063      .   S
    C164   O417      0.70063      .   S
    C5     O418      1.06133      .   S
    C176   O418      1.06133      .   S
    C5     O419      1.02763      .   S
    C207   O419      1.02763      .   S
    C5     O420      1.02346      .   S
    C173   O420      1.02346      .   S
    C68    O421      0.54392      .   S
    C9     O421      0.54392      .   S
    C68    O422      0.67313      .   S
    C168   O422      0.67313      .   S
    C27    O423      0.54523      .   S
    C100   O423      0.54523      .   S
    C166   O424      0.54504      .   S
    C63    O424      0.54504      .   S
    C166   O425      0.69753      .   S
    C165   O425      0.69753      .   S
    C69    O426      0.67427  1_655   S
    C168   O426      0.67427      .   S
    C69    O427      0.54389      .   S
    C10    O427      0.54389      .   S
    C26    O428      0.54388      .   S
    C99    O428      0.54388      .   S
    C164   O429      0.69751      .   S
    C165   O429      0.69751      .   S
    C164   O430      0.54450      .   S
    C61    O430      0.54450      .   S
    C45    O431      0.54383      .   S
    C134   O431      0.54383      .   S
    C168   O432      1.03202      .   S
    C0     O432      1.03202      .   S
    C100   O433      0.69725      .   S
    C99    O433      0.69725      .   S
    C100   O434      0.69752      .   S
    C101   O434      0.69752      .   S
    C165   O435      0.54513      .   S
    C62    O435      0.54513      .   S
    C173   O436      0.67623      .   S
    C134   O436      0.67623      .   S
    C173   O437      0.67985      .   S
    C133   O437      0.67985      .   S
    C99    O438      0.70140      .   S
    C98    O438      0.70140      .   S
    C28    O439      0.57942      .   S
    C101   O439      0.57942      .   S
    C134   O440      0.69807      .   S
    C130   O440      0.69807      .   S
    C101   O441      0.70346      .   S
    C96    O441      0.70346      .   S
    C44    O442      0.54416      .   S
    C133   O442      0.54416      .   S
    C187   O443      1.02781      .   S
    C0     O443      1.02781      .   S
    C187   O444      0.63560      .   S
    C102   O444      0.63560  1_565   S
    C196   O445      1.06138      .   S
    C0     O445      1.06138      .   S
    C196   O446      0.63549      .   S
    C129   O446      0.63549      .   S
    C133   O447      0.70095      .   S
    C132   O447      0.70095      .   S
    C0     O448      1.02780      .   S
    C198   O448      1.02780      .   S
    C0     O449      1.04490      .   S
    C185   O449      1.04490      .   S
    C98    O450      0.75136      .   S
    C102   O450      0.75136      .   S
    C98    O451      0.69819      .   S
    C97    O451      0.69819      .   S
    C130   O452      0.75515      .   S
    C129   O452      0.75515      .   S
    C130   O453      0.69827      .   S
    C131   O453      0.69827      .   S
    C96    O454      0.70123      .   S
    C97    O454      0.70123      .   S
    C132   O455      0.70095      .   S
    C131   O455      0.70095      .   S
    C0     O456      1.45488  1_556   S
    C6     O456      1.45488      .   S
    C1     O457      1.45420      .   S
    C7     O457      1.45420      .   S
    C2     O458      1.45449      .   S
    C4     O458      1.45449      .   S
    C3     O459      1.45444      .   S
    C5     O459      1.45444      .   S
