# CIF file generated by openbabel 2.4.90, see http://openbabel.sf.net
data_I
_chemical_name_common ''
_cell_length_a 18.464
_cell_length_b 18.456
_cell_length_c 18.454
_cell_angle_alpha 59.998
_cell_angle_beta 60.026
_cell_angle_gamma 60.029
_space_group_name_H-M_alt 'P 1'
_space_group_name_Hall 'P 1'
loop_
    _symmetry_equiv_pos_as_xyz
    x,y,z
loop_
    _atom_site_label
    _atom_site_type_symbol
    _atom_site_fract_x
    _atom_site_fract_y
    _atom_site_fract_z
    _atom_site_occupancy
    Zn0     Zn   0.19851   0.02433   0.19855   1.000
    Zn1     Zn   0.61150   0.61151   0.78537   1.000
    Zn2     Zn   0.19852   0.19854   0.02431   1.000
    Zn3     Zn   0.78520   0.61154   0.61154   1.000
    Zn4     Zn   0.02451   0.19854   0.19855   1.000
    Zn5     Zn   0.61143   0.61127   0.61126   1.000
    Zn6     Zn   0.19855   0.19861   0.19862   1.000
    Zn7     Zn   0.21474   0.38847   0.38840   1.000
    Zn8     Zn   0.97543   0.80147   0.80146   1.000
    Zn9     Zn   0.38844   0.38850   0.21464   1.000
    Zn10    Zn   0.80142   0.80147   0.97571   1.000
    Zn11    Zn   0.38842   0.21467   0.38850   1.000
    Zn12    Zn   0.80143   0.97567   0.80147   1.000
    Zn13    Zn   0.38851   0.38874   0.38876   1.000
    Zn14    Zn   0.80140   0.80140   0.80140   1.000
    Zn15    Zn   0.61152   0.78534   0.61152   1.000
    C16     C    0.29393   0.01615   0.29416   1.000
    C17     C    0.51597   0.79445   0.51587   1.000
    C18     C    0.29393   0.29415   0.01613   1.000
    C19     C    0.51596   0.51588   0.79446   1.000
    C20     C    0.01632   0.29406   0.29408   1.000
    C21     C    0.79451   0.51589   0.51590   1.000
    O22     O    0.28923   0.46202   0.46200   1.000
    O23     O    0.89989   0.72795   0.72794   1.000
    O24     O    0.02326   0.72806   0.72802   1.000
    O25     O    0.46189   0.46196   0.16593   1.000
    C26     C    0.29547   0.01593   0.01593   1.000
    C27     C    0.51730   0.79412   0.79415   1.000
    C28     C    0.01599   0.29546   0.01593   1.000
    C29     C    0.79403   0.51732   0.79420   1.000
    C30     C    0.01599   0.01594   0.29548   1.000
    C31     C    0.79405   0.79416   0.51730   1.000
    C32     C    0.98362   0.70595   0.70594   1.000
    C33     C    0.20543   0.48412   0.48412   1.000
    C34     C    0.70602   0.70585   0.98389   1.000
    C35     C    0.48398   0.48413   0.20550   1.000
    C36     C    0.70601   0.98386   0.70586   1.000
    C37     C    0.48397   0.20555   0.48415   1.000
    C38     C    0.98395   0.70455   0.98400   1.000
    C39     C    0.20591   0.48269   0.20582   1.000
    C40     C    0.70447   0.98408   0.98409   1.000
    C41     C    0.48264   0.20589   0.20587   1.000
    C42     C    0.98396   0.98407   0.70454   1.000
    C43     C    0.20589   0.20584   0.48270   1.000
    O44     O    0.53921   0.83356   0.71019   1.000
    O45     O    0.27292   0.97629   0.09978   1.000
    O46     O    0.71014   0.53925   0.83364   1.000
    O47     O    0.09975   0.27276   0.97629   1.000
    O48     O    0.83343   0.71022   0.53920   1.000
    O49     O    0.97640   0.09977   0.27302   1.000
    O50     O    0.83341   0.53917   0.71024   1.000
    O51     O    0.97641   0.27302   0.09978   1.000
    O52     O    0.53918   0.71016   0.83361   1.000
    O53     O    0.27294   0.09977   0.97600   1.000
    O54     O    0.71017   0.83359   0.53924   1.000
    O55     O    0.09974   0.97630   0.27281   1.000
    O56     O    0.53805   0.83406   0.53807   1.000
    O57     O    0.53821   0.71058   0.53786   1.000
    O58     O    0.27198   0.09994   0.27208   1.000
    O59     O    0.27178   0.97649   0.27216   1.000
    O60     O    0.53805   0.53804   0.83409   1.000
    O61     O    0.53820   0.53787   0.71058   1.000
    O62     O    0.27197   0.27207   0.09993   1.000
    O63     O    0.27177   0.27217   0.97648   1.000
    O64     O    0.83405   0.53809   0.53806   1.000
    O65     O    0.71071   0.53798   0.53796   1.000
    O66     O    0.10005   0.27206   0.27208   1.000
    O67     O    0.97668   0.27194   0.27200   1.000
    O68     O    0.65482   0.65485   0.65486   1.000
    O69     O    0.15507   0.15500   0.15500   1.000
    O70     O    0.16653   0.46083   0.28978   1.000
    O71     O    0.02353   0.72698   0.90020   1.000
    O72     O    0.46076   0.28984   0.16641   1.000
    O73     O    0.72700   0.90023   0.02372   1.000
    O74     O    0.28978   0.16642   0.46078   1.000
    O75     O    0.90020   0.02370   0.72720   1.000
    O76     O    0.46073   0.16644   0.28983   1.000
    O77     O    0.72703   0.02371   0.90020   1.000
    O78     O    0.28980   0.46075   0.16638   1.000
    O79     O    0.90019   0.72724   0.02373   1.000
    O80     O    0.16651   0.28979   0.46082   1.000
    O81     O    0.02354   0.90023   0.72700   1.000
    O82     O    0.16590   0.46192   0.46196   1.000
    O83     O    0.46174   0.46213   0.28944   1.000
    O84     O    0.72797   0.72794   0.90009   1.000
    O85     O    0.72817   0.72784   0.02354   1.000
    O86     O    0.46190   0.16594   0.46195   1.000
    O87     O    0.46172   0.28942   0.46217   1.000
    O88     O    0.72797   0.90007   0.72793   1.000
    O89     O    0.72816   0.02351   0.72786   1.000
    O90     O    0.34513   0.34516   0.34515   1.000
    O91     O    0.84487   0.84500   0.84502   1.000
loop_
    _geom_bond_atom_site_label_1
    _geom_bond_atom_site_label_2
    _geom_bond_distance
    _geom_bond_site_symmetry_2
    _ccdc_geom_bond_type
    C26    O45       1.27726  1_545   S
    C26    O53       1.27803  1_554   S
    C28    O51       1.27732  1_455   S
    C28    O47       1.27719  1_554   S
    C18    O62       1.27681      .   S
    C18    O63       1.27640  1_554   S
    O85    Zn10      1.97468  1_554   S
    O85    C34       1.27638  1_554   S
    O73    Zn10      1.97272  1_554   S
    O73    C40       1.27731  1_554   S
    O79    Zn10      1.97286  1_554   S
    O79    C38       1.27741  1_554   S
    Zn2    O53       1.97584  1_554   S
    Zn2    O47       1.97287  1_554   S
    Zn2    O63       1.97468  1_554   S
    O45    Zn0       1.97298  1_565   S
    O51    Zn4       1.97298  1_655   S
    O62    Zn6       1.97305      .   S
    O69    Zn0       1.96939      .   S
    O69    Zn4       1.96918      .   S
    O25    C35       1.27680      .   S
    O25    Zn9       1.97132      .   S
    O78    C39       1.27844      .   S
    O78    Zn9       1.97359      .   S
    O72    C41       1.27843      .   S
    O72    Zn9       1.97342      .   S
    Zn0    O59       1.97436  1_545   S
    Zn0    O55       1.97297  1_545   S
    Zn4    O67       1.97417  1_455   S
    Zn4    O49       1.97303  1_455   S
    Zn6    O66       1.97331      .   S
    Zn6    O58       1.97305      .   S
    C35    O83       1.27865      .   S
    C39    O70       1.27842      .   S
    C41    O76       1.27836      .   S
    O67    C20       1.27714  1_655   S
    O66    C20       1.27692      .   S
    O58    C16       1.27690      .   S
    O59    C16       1.27672  1_565   S
    O55    C30       1.27714  1_565   S
    O49    C30       1.27731  1_655   S
    O83    Zn13      1.97307      .   S
    O70    Zn7       1.97192      .   S
    O76    Zn11      1.97348      .   S
    O90    Zn7       1.96649      .   S
    O90    Zn11      1.96667      .   S
    Zn7    O80       1.97310      .   S
    Zn7    O82       1.97215      .   S
    Zn11   O74       1.97356      .   S
    Zn11   O86       1.97124      .   S
    Zn13   O22       1.97273      .   S
    Zn13   O87       1.97315      .   S
    O74    C43       1.27844      .   S
    O80    C43       1.27838      .   S
    O86    C37       1.27765      .   S
    O82    C33       1.27770      .   S
    O22    C33       1.27755      .   S
    O87    C37       1.27772      .   S
    C17    O57       1.27770      .   S
    C17    O56       1.27773      .   S
    C21    O65       1.27772      .   S
    C21    O64       1.27766      .   S
    C31    O48       1.27837      .   S
    C31    O54       1.27844      .   S
    O57    Zn5       1.97309      .   S
    O65    Zn5       1.97338      .   S
    O64    Zn3       1.97098      .   S
    O56    Zn15      1.97121      .   S
    O48    Zn3       1.97313      .   S
    O54    Zn15      1.97356      .   S
    Zn5    O61       1.97307      .   S
    Zn15   O68       1.96667      .   S
    Zn15   O44       1.97347      .   S
    Zn3    O68       1.96649      .   S
    Zn3    O50       1.97311      .   S
    C42    O81       1.27731  1_655   S
    C42    O75       1.27713  1_565   S
    C36    O89       1.27665  1_565   S
    C36    O88       1.27690      .   S
    C32    O23       1.27692      .   S
    C32    O24       1.27705  1_655   S
    O44    C27       1.27835      .   S
    O50    C29       1.27842      .   S
    O61    C19       1.27766      .   S
    O81    Zn8       1.97300  1_455   S
    O75    Zn12      1.97297  1_545   S
    O89    Zn12      1.97445  1_545   S
    O88    Zn14      1.97310      .   S
    O23    Zn14      1.97330      .   S
    O24    Zn8       1.97408  1_455   S
    Zn1    O52       1.97354      .   S
    Zn1    O46       1.97368      .   S
    Zn1    O60       1.97127      .   S
    C27    O52       1.27843      .   S
    C29    O46       1.27844      .   S
    C19    O60       1.27778      .   S
    Zn14   O84       1.97305      .   S
    Zn8    O91       1.96918      .   S
    Zn8    O71       1.97254  1_655   S
    Zn12   O91       1.96939      .   S
    Zn12   O77       1.97238  1_565   S
    O84    C34       1.27681      .   S
    O71    C38       1.27661  1_455   S
    O77    C40       1.27782  1_545   S
    O68    Zn1       1.96670      .   S
    O68    Zn5       1.96747      .   S
    O69    Zn2       1.96940      .   S
    O69    Zn6       1.96950      .   S
    O90    Zn9       1.96670      .   S
    O90    Zn13      1.96762      .   S
    O91    Zn10      1.96940      .   S
    O91    Zn14      1.96946      .   S
