# CIF file generated by openbabel 2.4.90, see http://openbabel.sf.net
data_I
_chemical_name_common ''
_cell_length_a 14.297
_cell_length_b 18.902
_cell_length_c 18.901
_cell_angle_alpha 66.133
_cell_angle_beta 75.395
_cell_angle_gamma 104.605
_space_group_name_H-M_alt 'P 1'
_space_group_name_Hall 'P 1'
loop_
    _symmetry_equiv_pos_as_xyz
    x,y,z
loop_
    _atom_site_label
    _atom_site_type_symbol
    _atom_site_fract_x
    _atom_site_fract_y
    _atom_site_fract_z
    _atom_site_occupancy
    Cu0     Cu   0.52638   0.97703   0.44904   1.000
    Cu1     Cu   0.97554   0.44906   0.57381   1.000
    Cu2     Cu   0.45057   0.42619   0.02291   1.000
    Cu3     Cu   0.47379   0.02296   0.55080   1.000
    Cu4     Cu   0.02447   0.55089   0.42616   1.000
    Cu5     Cu   0.54950   0.57381   0.97706   1.000
loop_
    _geom_bond_atom_site_label_1
    _geom_bond_atom_site_label_2
    _geom_bond_distance
    _geom_bond_site_symmetry_2
    _ccdc_geom_bond_type
    Cu5    Cu2       2.44379  1_556   S
    Cu0    Cu3       2.44322  1_565   S
    Cu1    Cu4       2.44375  1_655   S
