# CIF file generated by openbabel 2.4.90, see http://openbabel.sf.net
data_I
_chemical_name_common ''
_cell_length_a 22.113
_cell_length_b 22.118
_cell_length_c 14.068
_cell_angle_alpha 88.045
_cell_angle_beta 90.645
_cell_angle_gamma 80.131
_space_group_name_H-M_alt 'P 1'
_space_group_name_Hall 'P 1'
loop_
    _symmetry_equiv_pos_as_xyz
    x,y,z
loop_
    _atom_site_label
    _atom_site_type_symbol
    _atom_site_fract_x
    _atom_site_fract_y
    _atom_site_fract_z
    _atom_site_occupancy
    H0      H    0.36113   0.37056   0.55650   1.000
    H1      H    0.36377   0.86989   0.55618   1.000
    H2      H    0.86427   0.36981   0.55651   1.000
    H3      H    0.86185   0.87018   0.55680   1.000
    H4      H    0.37077   0.48150   0.56035   1.000
    H5      H    0.37218   0.98114   0.56009   1.000
    H6      H    0.87310   0.48096   0.56051   1.000
    H7      H    0.87019   0.98144   0.56064   1.000
    H8      H    0.38026   0.46885   0.86523   1.000
    H9      H    0.37788   0.96939   0.86510   1.000
    H10     H    0.87817   0.46927   0.86550   1.000
    H11     H    0.87963   0.96888   0.86553   1.000
    H12     H    0.37189   0.35698   0.86151   1.000
    H13     H    0.37060   0.85727   0.86136   1.000
    H14     H    0.86994   0.35736   0.86169   1.000
    H15     H    0.87205   0.85680   0.86182   1.000
    H16     H    0.16849   0.19214   0.55311   1.000
    H17     H    0.16879   0.69263   0.55284   1.000
    H18     H    0.66786   0.19359   0.55228   1.000
    H19     H    0.66914   0.69240   0.55253   1.000
    H20     H    0.05650   0.18877   0.55256   1.000
    H21     H    0.05672   0.68971   0.55353   1.000
    H22     H    0.55583   0.19082   0.55269   1.000
    H23     H    0.55709   0.68936   0.55259   1.000
    H24     H    0.06581   0.14594   0.85290   1.000
    H25     H    0.06769   0.64434   0.85309   1.000
    H26     H    0.56669   0.14434   0.85191   1.000
    H27     H    0.56737   0.64433   0.85220   1.000
    H28     H    0.17910   0.14801   0.85327   1.000
    H29     H    0.18097   0.64633   0.85231   1.000
    H30     H    0.67993   0.14631   0.85145   1.000
    H31     H    0.68067   0.64633   0.85209   1.000
    H32     H    0.46081   0.15341   0.45696   1.000
    H33     H    0.46236   0.65223   0.45653   1.000
    H34     H    0.96117   0.15260   0.45580   1.000
    H35     H    0.96255   0.65296   0.45699   1.000
    H36     H    0.46735   0.15109   0.27998   1.000
    H37     H    0.46895   0.65012   0.27955   1.000
    H38     H    0.96723   0.15044   0.27870   1.000
    H39     H    0.96910   0.65065   0.28002   1.000
    H40     H    0.26854   0.18397   0.26921   1.000
    H41     H    0.27012   0.68365   0.26859   1.000
    H42     H    0.76842   0.18369   0.26921   1.000
    H43     H    0.77027   0.68311   0.26933   1.000
    H44     H    0.27056   0.18462   0.44625   1.000
    H45     H    0.27213   0.68414   0.44571   1.000
    H46     H    0.77092   0.18434   0.44631   1.000
    H47     H    0.77229   0.68389   0.44631   1.000
    H48     H    0.44406   0.09021   0.14519   1.000
    H49     H    0.44565   0.59001   0.14404   1.000
    H50     H    0.94358   0.08969   0.14438   1.000
    H51     H    0.94625   0.59037   0.14453   1.000
    H52     H    0.44144   0.09340   0.96703   1.000
    H53     H    0.44253   0.59344   0.96585   1.000
    H54     H    0.94088   0.09310   0.96619   1.000
    H55     H    0.94293   0.59367   0.96636   1.000
    H56     H    0.30112   0.24341   0.95551   1.000
    H57     H    0.30227   0.74349   0.95555   1.000
    H58     H    0.80105   0.24354   0.95515   1.000
    H59     H    0.80149   0.74264   0.95620   1.000
    H60     H    0.29515   0.24541   0.13324   1.000
    H61     H    0.29668   0.74517   0.13328   1.000
    H62     H    0.79495   0.24518   0.13294   1.000
    H63     H    0.79606   0.74439   0.13392   1.000
    H64     H    0.13812   0.12982   0.44319   1.000
    H65     H    0.13569   0.63019   0.44346   1.000
    H66     H    0.63626   0.12998   0.44391   1.000
    H67     H    0.63884   0.62938   0.44345   1.000
    H68     H    0.12980   0.01856   0.43936   1.000
    H69     H    0.12688   0.51904   0.43948   1.000
    H70     H    0.62781   0.01873   0.43999   1.000
    H71     H    0.62928   0.51843   0.43960   1.000
    H72     H    0.12037   0.03111   0.13440   1.000
    H73     H    0.12184   0.53070   0.13445   1.000
    H74     H    0.62202   0.03051   0.13497   1.000
    H75     H    0.61990   0.53103   0.13475   1.000
    H76     H    0.12794   0.14318   0.13817   1.000
    H77     H    0.13006   0.64261   0.13828   1.000
    H78     H    0.62929   0.14264   0.13874   1.000
    H79     H    0.62817   0.64293   0.13840   1.000
    H80     H    0.33088   0.30757   0.44740   1.000
    H81     H    0.33211   0.80637   0.44772   1.000
    H82     H    0.83131   0.30715   0.44719   1.000
    H83     H    0.83150   0.80781   0.44689   1.000
    C84     C    0.59039   0.65447   0.78706   1.000
    C85     C    0.15165   0.15720   0.78796   1.000
    C86     C    0.15319   0.65603   0.78739   1.000
    C87     C    0.65220   0.15624   0.78651   1.000
    H88     H    0.44293   0.31062   0.44740   1.000
    H89     H    0.44415   0.80913   0.44731   1.000
    H90     H    0.94331   0.31032   0.44644   1.000
    H91     H    0.94348   0.81123   0.44744   1.000
    H92     H    0.43263   0.35570   0.14774   1.000
    H93     H    0.43328   0.85564   0.14809   1.000
    H94     H    0.93227   0.35531   0.14676   1.000
    H95     H    0.93415   0.85406   0.14710   1.000
    H96     H    0.31934   0.35367   0.14790   1.000
    H97     H    0.32003   0.85369   0.14857   1.000
    H98     H    0.81906   0.35298   0.14756   1.000
    H99     H    0.82087   0.85196   0.14674   1.000
    H100    H    0.03744   0.34703   0.54297   1.000
    H101    H    0.03879   0.84744   0.54421   1.000
    H102    H    0.53764   0.34772   0.54348   1.000
    H103    H    0.53918   0.84655   0.54305   1.000
    H104    H    0.03089   0.34934   0.71995   1.000
    H105    H    0.03274   0.84954   0.72120   1.000
    H106    H    0.53105   0.34986   0.72046   1.000
    H107    H    0.53265   0.84889   0.72003   1.000
    H108    H    0.22972   0.31688   0.73060   1.000
    H109    H    0.23156   0.81595   0.73081   1.000
    H110    H    0.72988   0.31634   0.73142   1.000
    H111    H    0.73146   0.81601   0.73070   1.000
    H112    H    0.22770   0.31610   0.55366   1.000
    H113    H    0.22905   0.81538   0.55370   1.000
    H114    H    0.72787   0.31583   0.55431   1.000
    H115    H    0.72942   0.81533   0.55372   1.000
    C116    C    0.13393   0.10816   0.37576   1.000
    C117    C    0.13233   0.60837   0.37595   1.000
    C118    C    0.63275   0.10819   0.37642   1.000
    C119    C    0.63431   0.60783   0.37603   1.000
    C120    C    0.12920   0.04628   0.37377   1.000
    H121    H    0.05375   0.40962   0.85545   1.000
    H122    H    0.05652   0.91025   0.85557   1.000
    H123    H    0.55433   0.40995   0.85600   1.000
    H124    H    0.55595   0.90978   0.85480   1.000
    H125    H    0.05707   0.40631   0.03361   1.000
    H126    H    0.05923   0.90692   0.03370   1.000
    H127    H    0.55747   0.40649   0.03419   1.000
    H128    H    0.55855   0.90657   0.03296   1.000
    H129    H    0.19852   0.25735   0.04370   1.000
    H130    H    0.19885   0.75630   0.04493   1.000
    H131    H    0.69778   0.25649   0.04444   1.000
    H132    H    0.69887   0.75656   0.04447   1.000
    H133    H    0.20394   0.25559   0.86600   1.000
    H134    H    0.20490   0.75454   0.86715   1.000
    H135    H    0.70334   0.25482   0.86670   1.000
    H136    H    0.70485   0.75458   0.86674   1.000
    C137    C    0.36556   0.35695   0.70885   1.000
    C138    C    0.36634   0.85673   0.70861   1.000
    C139    C    0.86625   0.35675   0.70894   1.000
    C140    C    0.86607   0.85667   0.70914   1.000
    C141    C    0.36570   0.39210   0.62395   1.000
    C142    C    0.36725   0.89169   0.62367   1.000
    C143    C    0.86765   0.39162   0.62402   1.000
    C144    C    0.86604   0.89183   0.62423   1.000
    C145    C    0.37114   0.45382   0.62590   1.000
    C146    C    0.37200   0.95358   0.62570   1.000
    C147    C    0.87267   0.45344   0.62610   1.000
    C148    C    0.87079   0.95371   0.62622   1.000
    C149    C    0.37624   0.48178   0.71000   1.000
    C150    C    0.37574   0.98187   0.71280   1.000
    C151    C    0.87639   0.48171   0.71324   1.000
    C152    C    0.87556   0.98178   0.71328   1.000
    C153    C    0.37672   0.44656   0.79800   1.000
    C154    C    0.37541   0.94685   0.79785   1.000
    C155    C    0.87568   0.44676   0.79826   1.000
    C156    C    0.87629   0.94653   0.79830   1.000
    C157    C    0.37163   0.38472   0.79597   1.000
    C158    C    0.37095   0.88487   0.79580   1.000
    C159    C    0.87073   0.38489   0.79615   1.000
    C160    C    0.87169   0.88456   0.79627   1.000
    C161    C    0.18066   0.17042   0.70348   1.000
    C162    C    0.18177   0.66988   0.70279   1.000
    C163    C    0.68087   0.17042   0.70214   1.000
    C164    C    0.68178   0.66977   0.70256   1.000
    C165    C    0.14612   0.18138   0.61854   1.000
    C166    C    0.14675   0.68150   0.61839   1.000
    C167    C    0.64584   0.18229   0.61775   1.000
    C168    C    0.64696   0.68129   0.61795   1.000
    C169    C    0.08359   0.17958   0.61819   1.000
    C170    C    0.08417   0.67990   0.61873   1.000
    C171    C    0.58322   0.18074   0.61793   1.000
    C172    C    0.58439   0.67964   0.61794   1.000
    C173    C    0.05449   0.16673   0.70275   1.000
    C174    C    0.05549   0.66646   0.70340   1.000
    C175    C    0.55444   0.16705   0.70241   1.000
    C176    C    0.55553   0.66629   0.70248   1.000
    C177    C    0.08903   0.15564   0.78769   1.000
    C178    C    0.09055   0.65455   0.78777   1.000
    C179    C    0.58955   0.15479   0.78672   1.000
    C180    C    0.65302   0.65597   0.78703   1.000
    C181    C    0.41962   0.15930   0.41202   1.000
    C182    C    0.42118   0.65835   0.41155   1.000
    C183    C    0.91987   0.15868   0.41112   1.000
    C184    C    0.92136   0.65884   0.41205   1.000
    C185    C    0.42265   0.15776   0.31361   1.000
    C186    C    0.42424   0.65691   0.31313   1.000
    C187    C    0.92263   0.15718   0.31269   1.000
    C188    C    0.92440   0.65728   0.31360   1.000
    C189    C    0.36806   0.16710   0.25927   1.000
    C190    C    0.36965   0.66654   0.25875   1.000
    C191    C    0.86790   0.16665   0.25869   1.000
    C192    C    0.86979   0.66652   0.25931   1.000
    C193    C    0.31233   0.17681   0.30770   1.000
    C194    C    0.31391   0.67630   0.30713   1.000
    C195    C    0.81231   0.17643   0.30745   1.000
    C196    C    0.81407   0.67609   0.30778   1.000
    C197    C    0.31296   0.17711   0.40640   1.000
    C198    C    0.31452   0.67651   0.40585   1.000
    C199    C    0.81320   0.17672   0.40617   1.000
    C200    C    0.81469   0.67646   0.40646   1.000
    C201    C    0.36915   0.16737   0.15426   1.000
    C202    C    0.37069   0.66707   0.15373   1.000
    C203    C    0.86884   0.16700   0.15367   1.000
    C204    C    0.87071   0.66688   0.15429   1.000
    C205    C    0.41138   0.12495   0.10606   1.000
    C206    C    0.41285   0.62478   0.10519   1.000
    C207    C    0.91097   0.12456   0.10535   1.000
    C208    C    0.91314   0.62487   0.10572   1.000
    C209    C    0.41033   0.12631   0.00000   1.000
    C210    C    0.41155   0.62628   0.00000   1.000
    C211    C    0.90991   0.12606   0.00000   1.000
    C212    C    0.91172   0.62629   0.00000   1.000
    C213    C    0.33087   0.20969   0.00000   1.000
    C214    C    0.33209   0.70967   0.00000   1.000
    C215    C    0.83065   0.20965   0.00000   1.000
    C216    C    0.83162   0.70907   0.00000   1.000
    C217    C    0.32798   0.21052   0.09939   1.000
    C218    C    0.32943   0.71034   0.09919   1.000
    C219    C    0.82773   0.21030   0.09896   1.000
    C220    C    0.82905   0.70978   0.09900   1.000
    C221    C    0.13391   0.14333   0.29080   1.000
    C222    C    0.13374   0.64323   0.29103   1.000
    C223    C    0.63363   0.14314   0.29147   1.000
    C224    C    0.63446   0.64297   0.29110   1.000
    C225    C    0.12731   0.54655   0.37388   1.000
    C226    C    0.62798   0.04630   0.37439   1.000
    C227    C    0.62892   0.54610   0.37405   1.000
    C228    C    0.12443   0.01821   0.28671   1.000
    C229    C    0.12361   0.51827   0.28675   1.000
    C230    C    0.62422   0.01803   0.28727   1.000
    C231    C    0.62387   0.51812   0.28699   1.000
    C232    C    0.12370   0.05346   0.20169   1.000
    C233    C    0.12432   0.55322   0.20172   1.000
    C234    C    0.62451   0.05305   0.20222   1.000
    C235    C    0.62339   0.55333   0.20198   1.000
    C236    C    0.12830   0.11543   0.20372   1.000
    C237    C    0.12927   0.61509   0.20382   1.000
    C238    C    0.62897   0.11502   0.20420   1.000
    C239    C    0.62843   0.61519   0.20401   1.000
    C240    C    0.31823   0.33022   0.29743   1.000
    C241    C    0.31909   0.82956   0.29788   1.000
    C242    C    0.81829   0.32960   0.29715   1.000
    C243    C    0.81931   0.82952   0.29652   1.000
    C244    C    0.35306   0.31869   0.38203   1.000
    C245    C    0.35413   0.81768   0.38220   1.000
    C246    C    0.85331   0.31823   0.38159   1.000
    C247    C    0.85386   0.81858   0.38146   1.000
    C248    C    0.41562   0.32034   0.38204   1.000
    C249    C    0.41675   0.81922   0.38208   1.000
    C250    C    0.91586   0.31998   0.38121   1.000
    C251    C    0.91638   0.82041   0.38181   1.000
    C252    C    0.44449   0.33371   0.29750   1.000
    C253    C    0.44552   0.83291   0.29759   1.000
    C254    C    0.94451   0.33339   0.29649   1.000
    C255    C    0.94548   0.83327   0.29720   1.000
    C256    C    0.40962   0.34554   0.21294   1.000
    C257    C    0.41042   0.84520   0.21329   1.000
    C258    C    0.90945   0.34510   0.21211   1.000
    C259    C    0.91094   0.84435   0.21231   1.000
    C260    C    0.34698   0.34403   0.21290   1.000
    C261    C    0.34777   0.84375   0.21350   1.000
    C262    C    0.84684   0.34343   0.21250   1.000
    C263    C    0.84832   0.84277   0.21204   1.000
    C264    C    0.07863   0.34114   0.58792   1.000
    C265    C    0.08010   0.84127   0.58880   1.000
    C266    C    0.57882   0.34161   0.58846   1.000
    C267    C    0.58036   0.84067   0.58798   1.000
    C268    C    0.07560   0.34270   0.68634   1.000
    C269    C    0.07734   0.84274   0.68732   1.000
    C270    C    0.57576   0.34306   0.68688   1.000
    C271    C    0.57734   0.84222   0.68639   1.000
    C272    C    0.13020   0.33346   0.74066   1.000
    C273    C    0.13207   0.83316   0.74130   1.000
    C274    C    0.63034   0.33344   0.74126   1.000
    C275    C    0.63194   0.83288   0.74070   1.000
    C276    C    0.18592   0.32389   0.69219   1.000
    C277    C    0.18767   0.82329   0.69257   1.000
    C278    C    0.68609   0.32368   0.69287   1.000
    C279    C    0.68766   0.82317   0.69228   1.000
    C280    C    0.18530   0.32352   0.59350   1.000
    C281    C    0.18677   0.82305   0.59380   1.000
    C282    C    0.68547   0.32346   0.59416   1.000
    C283    C    0.68703   0.82285   0.59357   1.000
    C284    C    0.12928   0.33311   0.84568   1.000
    C285    C    0.13114   0.83283   0.84634   1.000
    C286    C    0.62932   0.33291   0.84628   1.000
    C287    C    0.63086   0.83262   0.84573   1.000
    C288    C    0.08686   0.37511   0.89426   1.000
    C289    C    0.08908   0.87536   0.89463   1.000
    C290    C    0.58714   0.37518   0.89484   1.000
    C291    C    0.58863   0.87503   0.89393   1.000
    C292    C    0.08828   0.37369   0.99311   1.000
    C293    C    0.09014   0.87390   0.99346   1.000
    C294    C    0.58846   0.37367   0.99368   1.000
    C295    C    0.58967   0.87366   0.99270   1.000
    C296    C    0.16839   0.29092   0.99870   1.000
    C297    C    0.16929   0.79020   0.99960   1.000
    C298    C    0.66794   0.29029   0.99933   1.000
    C299    C    0.66912   0.79028   0.99910   1.000
    C300    C    0.17095   0.29020   0.90017   1.000
    C301    C    0.17219   0.78949   0.90100   1.000
    C302    C    0.67058   0.28964   0.90080   1.000
    C303    C    0.67202   0.78946   0.90059   1.000
    N304    N    0.36575   0.16888   0.45800   1.000
    N305    N    0.36729   0.66812   0.45750   1.000
    N306    N    0.86612   0.16839   0.45747   1.000
    N307    N    0.86749   0.66839   0.45805   1.000
    N308    N    0.37078   0.16801   0.95503   1.000
    N309    N    0.37183   0.66803   0.95451   1.000
    N310    N    0.87048   0.16796   0.95450   1.000
    N311    N    0.87166   0.66773   0.95505   1.000
    N312    N    0.13251   0.33159   0.54192   1.000
    N313    N    0.13385   0.83150   0.54250   1.000
    N314    N    0.63271   0.33183   0.54248   1.000
    N315    N    0.63423   0.83107   0.54197   1.000
    N316    N    0.12835   0.33226   0.04492   1.000
    N317    N    0.12953   0.83197   0.04551   1.000
    N318    N    0.62819   0.33192   0.04550   1.000
    N319    N    0.62921   0.83195   0.04495   1.000
loop_
    _geom_bond_atom_site_label_1
    _geom_bond_atom_site_label_2
    _geom_bond_distance
    _geom_bond_site_symmetry_2
    _ccdc_geom_bond_type
    C209   C205      1.49117      .   S
    C209   N308      1.29895  1_554   S
    C209   H52       1.03766  1_554   S
    C216   C220      1.39505      .   S
    C216   N311      1.33948  1_554   S
    C216   H59       1.07934  1_554   S
    C215   C219      1.39485      .   S
    C215   N310      1.34540  1_554   S
    C215   H58       1.08566  1_554   S
    C214   C218      1.39777      .   S
    C214   N309      1.34380  1_554   S
    C214   H57       1.08398  1_554   S
    C213   C217      1.40100      .   S
    C213   N308      1.34246  1_554   S
    C213   H56       1.08227  1_554   S
    C212   C208      1.48639      .   S
    C212   N311      1.30160  1_554   S
    C212   H55       1.03963  1_554   S
    C211   C207      1.48113      .   S
    C211   N310      1.30351  1_554   S
    C211   H54       1.04225  1_554   S
    C210   C206      1.47890      .   S
    C210   N309      1.30485  1_554   S
    C210   H53       1.04319  1_554   S
    H128   C295      1.09044  1_554   S
    H125   C292      1.08981  1_554   S
    H126   C293      1.08943  1_554   S
    H127   C294      1.08987  1_554   S
    H129   C296      1.08856  1_554   S
    H131   C298      1.08910  1_554   S
    H132   C299      1.08913  1_554   S
    N316   C292      1.34820  1_554   S
    N316   C296      1.34852  1_554   S
    H130   C297      1.08917  1_554   S
    N319   C295      1.34868  1_554   S
    N319   C299      1.34867  1_554   S
    N318   C294      1.34815  1_554   S
    N318   C298      1.34859  1_554   S
    N317   C293      1.34807  1_554   S
    N317   C297      1.34863  1_554   S
    C219   H62       1.09097      .   S
    C219   C203      1.40409      .   S
    C220   H63       1.09633      .   S
    C220   C204      1.40997      .   S
    C218   H61       1.09071      .   S
    C218   C202      1.40419      .   S
    C217   H60       1.09088      .   S
    C217   C201      1.40412      .   S
    C206   H49       1.08979      .   S
    C206   C202      1.40336      .   S
    C207   H50       1.08977      .   S
    C207   C203      1.40333      .   S
    C208   H51       1.08981      .   S
    C208   C204      1.40329      .   S
    C205   H48       1.08980      .   S
    C205   C201      1.40334      .   S
    H72    C232      1.09030      .   S
    H73    C233      1.08955      .   S
    H75    C235      1.08953      .   S
    H74    C234      1.08950      .   S
    H76    C236      1.08947      .   S
    H77    C237      1.08936      .   S
    H79    C239      1.09020      .   S
    H78    C238      1.08834      .   S
    H99    C263      1.08905      .   S
    H94    C258      1.08910      .   S
    H95    C259      1.08908      .   S
    H98    C262      1.08917      .   S
    H92    C256      1.08915      .   S
    H96    C260      1.08845      .   S
    H93    C257      1.08915      .   S
    H97    C261      1.08918      .   S
    C203   C191      1.47757      .   S
    C202   C190      1.47753      .   S
    C201   C189      1.47758      .   S
    C204   C192      1.47756      .   S
    C232   C236      1.39280      .   S
    C232   C228      1.40365      .   S
    C233   C237      1.39260      .   S
    C233   C229      1.40362      .   S
    C235   C239      1.39268      .   S
    C235   C231      1.40367      .   S
    C234   C238      1.39231      .   S
    C234   C230      1.40358      .   S
    C236   C221      1.40409      .   S
    C237   C222      1.40459      .   S
    C239   C224      1.40441      .   S
    C238   C223      1.40566      .   S
    C263   C259      1.39109      .   S
    C263   C243      1.40274      .   S
    C258   C262      1.39124      .   S
    C258   C254      1.40250      .   S
    C259   C255      1.40178      .   S
    C262   C242      1.40306      .   S
    C260   C256      1.39114      .   S
    C260   C240      1.40377      .   S
    C256   C252      1.40250      .   S
    C257   C261      1.39127      .   S
    C257   C253      1.40281      .   S
    C261   C241      1.40331      .   S
    C191   C195      1.40241      .   S
    C191   C187      1.40250      .   S
    C190   C194      1.40246      .   S
    C190   C186      1.40265      .   S
    C189   C193      1.40249      .   S
    C189   C185      1.40269      .   S
    C192   C196      1.40254      .   S
    C192   C188      1.40251      .   S
    H41    C194      1.08917      .   S
    H42    C195      1.08903      .   S
    H40    C193      1.08898      .   S
    H43    C196      1.08894      .   S
    H38    C187      1.09026      .   S
    H37    C186      1.08987      .   S
    H36    C185      1.08981      .   S
    H39    C188      1.08965      .   S
    C228   C120      1.40284      .   S
    C229   C225      1.40284      .   S
    C231   C227      1.40279      .   S
    C230   C226      1.40278      .   S
    C221   C116      1.40354      .   S
    C222   C117      1.40312      .   S
    C224   C119      1.40334      .   S
    C223   C118      1.40314      .   S
    C254   C250      1.40257      .   S
    C243   C247      1.40228      .   S
    C242   C246      1.40219      .   S
    C255   C251      1.40304      .   S
    C240   C244      1.40209      .   S
    C252   C248      1.40250      .   S
    C253   C249      1.40272      .   S
    C241   C245      1.40166      .   S
    C194   C198      1.38887      .   S
    C195   C199      1.38896      .   S
    C193   C197      1.38868      .   S
    C196   C200      1.38846      .   S
    C187   C183      1.38803      .   S
    C186   C182      1.38816      .   S
    C188   C184      1.38869      .   S
    C185   C181      1.38810      .   S
    C120   C116      1.39171      .   S
    C120   H68       1.08895      .   S
    C225   C117      1.39197      .   S
    C225   H69       1.08904      .   S
    C227   C119      1.39189      .   S
    C227   H71       1.08849      .   S
    C226   C118      1.39204      .   S
    C226   H70       1.08902      .   S
    C116   H64       1.08722      .   S
    C117   H65       1.08730      .   S
    C119   H67       1.08719      .   S
    C118   H66       1.08729      .   S
    C250   C246      1.39034      .   S
    C250   H90       1.08897      .   S
    C247   C251      1.39011      .   S
    C247   H83       1.08816      .   S
    C246   H82       1.08814      .   S
    C251   H91       1.08889      .   S
    C244   C248      1.39032      .   S
    C244   H80       1.08750      .   S
    C248   H88       1.08895      .   S
    C249   C245      1.39106      .   S
    C249   H89       1.08903      .   S
    C245   H81       1.08881      .   S
    C198   H45       1.08890      .   S
    C198   N305      1.34959      .   S
    C199   H46       1.08892      .   S
    C199   N306      1.34991      .   S
    C197   H44       1.08896      .   S
    C197   N304      1.34970      .   S
    C200   H47       1.08896      .   S
    C200   N307      1.34983      .   S
    C183   H34       1.08938      .   S
    C183   N306      1.35035      .   S
    C182   H33       1.08939      .   S
    C182   N305      1.35029      .   S
    C181   H32       1.08938      .   S
    C181   N304      1.35014      .   S
    C184   H35       1.08939      .   S
    C184   N307      1.35028      .   S
    N312   C264      1.35028      .   S
    N312   C280      1.34976      .   S
    N315   C267      1.35028      .   S
    N315   C283      1.34980      .   S
    N314   C266      1.35050      .   S
    N314   C282      1.34980      .   S
    N313   C265      1.35000      .   S
    N313   C281      1.34985      .   S
    H100   C264      1.08947      .   S
    H103   C267      1.08938      .   S
    H102   C266      1.08941      .   S
    H101   C265      1.08866      .   S
    H18    C167      1.08819      .   S
    H19    C168      1.08807      .   S
    H20    C169      1.08891      .   S
    H23    C172      1.08883      .   S
    H22    C171      1.08911      .   S
    H17    C166      1.08818      .   S
    H16    C165      1.08816      .   S
    H21    C170      1.08886      .   S
    H112   C280      1.08890      .   S
    H113   C281      1.08858      .   S
    H115   C283      1.08889      .   S
    H114   C282      1.08886      .   S
    H1     C142      1.08723      .   S
    H0     C141      1.08754      .   S
    H2     C143      1.08727      .   S
    H3     C144      1.08721      .   S
    H5     C146      1.08906      .   S
    H4     C145      1.08856      .   S
    H6     C147      1.08897      .   S
    H7     C148      1.08889      .   S
    C264   C268      1.38827      .   S
    C267   C271      1.38810      .   S
    C266   C270      1.38818      .   S
    C265   C269      1.38924      .   S
    C280   C276      1.38860      .   S
    C283   C279      1.38884      .   S
    C281   C277      1.38962      .   S
    C282   C278      1.38875      .   S
    C167   C171      1.39108      .   S
    C167   C163      1.40243      .   S
    C171   C175      1.40265      .   S
    C172   C168      1.39026      .   S
    C172   C176      1.40245      .   S
    C168   C164      1.40213      .   S
    C169   C165      1.39010      .   S
    C169   C173      1.40243      .   S
    C166   C170      1.39036      .   S
    C166   C162      1.40207      .   S
    C165   C161      1.40225      .   S
    C170   C174      1.40253      .   S
    C142   C146      1.39205      .   S
    C142   C138      1.40316      .   S
    C141   C145      1.39188      .   S
    C141   C137      1.40305      .   S
    C143   C147      1.39200      .   S
    C143   C139      1.40318      .   S
    C144   C148      1.39170      .   S
    C144   C140      1.40297      .   S
    C146   C150      1.40269      .   S
    C145   C149      1.36597      .   S
    C147   C151      1.40294      .   S
    C148   C152      1.40280      .   S
    C268   H104      1.08984      .   S
    C268   C272      1.40273      .   S
    C271   H107      1.08981      .   S
    C271   C275      1.40255      .   S
    C270   H106      1.08987      .   S
    C270   C274      1.40265      .   S
    C269   H105      1.08955      .   S
    C269   C273      1.40235      .   S
    C276   H108      1.08867      .   S
    C276   C272      1.40254      .   S
    C279   H111      1.08858      .   S
    C279   C275      1.40232      .   S
    C277   H109      1.08905      .   S
    C277   C273      1.40220      .   S
    C278   H110      1.08925      .   S
    C278   C274      1.40251      .   S
    C163   C87       1.40320      .   S
    C175   C179      1.40286      .   S
    C176   C84       1.40263      .   S
    C164   C180      1.40300      .   S
    C173   C177      1.40230      .   S
    C162   C86       1.40299      .   S
    C174   C178      1.40257      .   S
    C161   C85       1.40265      .   S
    C138   C158      1.40474      .   S
    C137   C157      1.40478      .   S
    C139   C159      1.40458      .   S
    C140   C160      1.40469      .   S
    C149   C153      1.43897      .   S
    C150   C154      1.40369      .   S
    C151   C155      1.40357      .   S
    C152   C156      1.40366      .   S
    C272   C284      1.47756      .   S
    C275   C287      1.47785      .   S
    C274   C286      1.47753      .   S
    C273   C285      1.47786      .   S
    C87    C179      1.39126      .   S
    C87    H30       1.08922      .   S
    C179   H26       1.08903      .   S
    C180   C84       1.39112      .   S
    C180   H31       1.08914      .   S
    C84    H27       1.08843      .   S
    C86    C178      1.39119      .   S
    C86    H29       1.08925      .   S
    C177   C85       1.39108      .   S
    C177   H24       1.08909      .   S
    C178   H25       1.08913      .   S
    C85    H28       1.08916      .   S
    C158   C154      1.39251      .   S
    C158   H13       1.08935      .   S
    C157   C153      1.39266      .   S
    C157   H12       1.08941      .   S
    C159   C155      1.39259      .   S
    C159   H14       1.08940      .   S
    C160   C156      1.39277      .   S
    C160   H15       1.08950      .   S
    C154   H9        1.08947      .   S
    C153   H8        1.08956      .   S
    C155   H10       1.08913      .   S
    C156   H11       1.08955      .   S
    C284   C288      1.40335      .   S
    C284   C300      1.40417      .   S
    C287   C291      1.40332      .   S
    C287   C303      1.40406      .   S
    C286   C290      1.40339      .   S
    C286   C302      1.40417      .   S
    C285   C289      1.40334      .   S
    C285   C301      1.40344      .   S
    H124   C291      1.08982      .   S
    H121   C288      1.08982      .   S
    H122   C289      1.08980      .   S
    H123   C290      1.08983      .   S
    H133   C300      1.09130      .   S
    H135   C302      1.09071      .   S
    H136   C303      1.09085      .   S
    H134   C301      1.09031      .   S
    C291   C295      1.38864      .   S
    C288   C292      1.38979      .   S
    C289   C293      1.38946      .   S
    C290   C294      1.38960      .   S
    C300   C296      1.38844      .   S
    C303   C299      1.38863      .   S
    C302   C298      1.38847      .   S
    C301   C297      1.38980      .   S
