# CIF file generated by openbabel 2.4.90, see http://openbabel.sf.net
data_I
_chemical_name_common ''
_cell_length_a 22.113
_cell_length_b 22.118
_cell_length_c 14.068
_cell_angle_alpha 88.045
_cell_angle_beta 90.645
_cell_angle_gamma 80.131
_space_group_name_H-M_alt 'P 1'
_space_group_name_Hall 'P 1'
loop_
    _symmetry_equiv_pos_as_xyz
    x,y,z
loop_
    _atom_site_label
    _atom_site_type_symbol
    _atom_site_fract_x
    _atom_site_fract_y
    _atom_site_fract_z
    _atom_site_occupancy
    Zn0     Zn   0.37004   0.66674   0.80750   1.000
    Zn1     Zn   0.86929   0.16689   0.80760   1.000
    Zn2     Zn   0.86999   0.66666   0.80795   1.000
    Zn3     Zn   0.36571   0.17222   0.60440   1.000
    Zn4     Zn   0.36717   0.67189   0.60407   1.000
    Zn5     Zn   0.86669   0.17188   0.60406   1.000
    Zn6     Zn   0.86716   0.67193   0.60439   1.000
    Zn7     Zn   0.13001   0.33333   0.19202   1.000
    Zn8     Zn   0.13069   0.83310   0.19241   1.000
    Zn9     Zn   0.62998   0.33314   0.19241   1.000
    Zn10    Zn   0.63049   0.83316   0.19206   1.000
    Zn11    Zn   0.13284   0.32806   0.39558   1.000
    Zn12    Zn   0.13329   0.82811   0.39593   1.000
    Zn13    Zn   0.63285   0.32804   0.39592   1.000
    Zn14    Zn   0.63421   0.82773   0.39558   1.000
    Zn15    Zn   0.36950   0.16679   0.80792   1.000
    C16     C    0.35946   0.29029   0.70668   1.000
    C17     C    0.36086   0.78992   0.70660   1.000
    C18     C    0.86041   0.29003   0.70693   1.000
    C19     C    0.86050   0.78989   0.70696   1.000
    C20     C    0.37751   0.04954   0.71460   1.000
    C21     C    0.37846   0.54935   0.71482   1.000
    C22     C    0.87737   0.04944   0.71496   1.000
    C23     C    0.87845   0.54932   0.71500   1.000
    C24     C    0.24788   0.17348   0.70399   1.000
    C25     C    0.24896   0.67314   0.70273   1.000
    C26     C    0.74812   0.17375   0.70249   1.000
    C27     C    0.74895   0.67303   0.70276   1.000
    O28     O    0.46302   0.66150   0.78340   1.000
    O29     O    0.96143   0.16387   0.78308   1.000
    O30     O    0.96310   0.66140   0.78466   1.000
    O31     O    0.14056   0.23864   0.21279   1.000
    O32     O    0.14328   0.73775   0.21286   1.000
    O33     O    0.64032   0.23826   0.21303   1.000
    O34     O    0.64018   0.73848   0.21303   1.000
    O35     O    0.14281   0.23317   0.37432   1.000
    C36     C    0.48669   0.16622   0.70316   1.000
    C37     C    0.48783   0.66542   0.70270   1.000
    C38     C    0.98688   0.16557   0.70249   1.000
    C39     C    0.98779   0.66554   0.70395   1.000
    C40     C    0.13948   0.21011   0.29303   1.000
    C41     C    0.13958   0.70995   0.29304   1.000
    C42     C    0.63914   0.20995   0.29340   1.000
    C43     C    0.64053   0.70964   0.29329   1.000
    C44     C    0.12155   0.45067   0.28492   1.000
    C45     C    0.12262   0.95055   0.28504   1.000
    C46     C    0.62171   0.45054   0.28520   1.000
    C47     C    0.62247   0.95038   0.28542   1.000
    C48     C    0.25106   0.32695   0.29722   1.000
    C49     C    0.25185   0.82623   0.29753   1.000
    C50     C    0.75114   0.32620   0.29728   1.000
    C51     C    0.75211   0.82640   0.29600   1.000
    C52     C    0.01220   0.33442   0.29591   1.000
    C53     C    0.01309   0.83443   0.29751   1.000
    C54     C    0.51218   0.33458   0.29720   1.000
    C55     C    0.51327   0.83372   0.29684   1.000
    O56     O    0.35984   0.26145   0.78694   1.000
    O57     O    0.35931   0.76159   0.78690   1.000
    O58     O    0.85671   0.26224   0.78712   1.000
    O59     O    0.85944   0.76135   0.78719   1.000
    O60     O    0.35433   0.26763   0.62550   1.000
    O61     O    0.35794   0.76664   0.62538   1.000
    O62     O    0.85951   0.26628   0.62572   1.000
    O63     O    0.85717   0.76682   0.62567   1.000
    O64     O    0.37791   0.07811   0.63472   1.000
    O65     O    0.37738   0.57813   0.63483   1.000
    O66     O    0.87481   0.07833   0.63490   1.000
    O67     O    0.87747   0.57810   0.63512   1.000
    O68     O    0.37748   0.07316   0.79617   1.000
    O69     O    0.38004   0.57278   0.79629   1.000
    O70     O    0.88019   0.07280   0.79627   1.000
    O71     O    0.87993   0.57274   0.79656   1.000
    O72     O    0.27433   0.17463   0.78486   1.000
    O73     O    0.27587   0.67239   0.78366   1.000
    O74     O    0.77507   0.17186   0.78357   1.000
    O75     O    0.77578   0.67238   0.78374   1.000
    O76     O    0.27327   0.17531   0.62338   1.000
    O77     O    0.27385   0.67706   0.62208   1.000
    O78     O    0.77302   0.17899   0.62212   1.000
    O79     O    0.77391   0.67691   0.62216   1.000
    O80     O    0.45855   0.17190   0.62289   1.000
    O81     O    0.46041   0.66930   0.62195   1.000
    O82     O    0.96015   0.16693   0.62152   1.000
    O83     O    0.96020   0.66958   0.62333   1.000
    O84     O    0.46248   0.16044   0.78390   1.000
    O85     O    0.14047   0.73370   0.37425   1.000
    O86     O    0.64241   0.23321   0.37457   1.000
    O87     O    0.64560   0.73231   0.37448   1.000
    O88     O    0.12255   0.42189   0.36400   1.000
    O89     O    0.12519   0.92166   0.36510   1.000
    O90     O    0.62257   0.42182   0.36520   1.000
    O91     O    0.62212   0.92179   0.36531   1.000
    O92     O    0.12007   0.42723   0.20345   1.000
    O93     O    0.11981   0.92718   0.20373   1.000
    O94     O    0.62039   0.42705   0.20370   1.000
    O95     O    0.62249   0.92678   0.20385   1.000
    O96     O    0.22423   0.32761   0.21624   1.000
    O97     O    0.22489   0.82814   0.21646   1.000
    O98     O    0.72434   0.32605   0.21641   1.000
    O99     O    0.72565   0.82536   0.21512   1.000
    O100    O    0.22609   0.32307   0.37782   1.000
    O101    O    0.22696   0.82098   0.37791   1.000
    O102    O    0.72615   0.32304   0.37799   1.000
    O103    O    0.72673   0.82442   0.37660   1.000
    O104    O    0.03979   0.33043   0.37650   1.000
    O105    O    0.03982   0.83306   0.37848   1.000
    O106    O    0.53965   0.33058   0.37800   1.000
    O107    O    0.54140   0.82808   0.37713   1.000
    O108    O    0.03687   0.33859   0.21519   1.000
    O109    O    0.03855   0.83612   0.21692   1.000
    O110    O    0.53697   0.33859   0.21650   1.000
    O111    O    0.53751   0.83944   0.21609   1.000
loop_
    _geom_bond_atom_site_label_1
    _geom_bond_atom_site_label_2
    _geom_bond_distance
    _geom_bond_site_symmetry_2
    _ccdc_geom_bond_type
    Zn7    O92       2.06270      .   S
    Zn7    O31       2.07747      .   S
    Zn7    O108      2.07292      .   S
    Zn7    O96       2.08901      .   S
    Zn10   O95       2.06032      .   S
    Zn10   O34       2.07873      .   S
    Zn10   O99       2.10216      .   S
    Zn10   O111      2.06936      .   S
    Zn9    O94       2.06313      .   S
    Zn9    O33       2.08144      .   S
    Zn9    O98       2.08838      .   S
    Zn9    O110      2.07189      .   S
    Zn8    O93       2.06528      .   S
    Zn8    O32       2.08894      .   S
    Zn8    O97       2.09028      .   S
    Zn8    O109      2.06040      .   S
    O92    C44       1.27624      .   S
    O94    C46       1.27692      .   S
    O93    C45       1.27636      .   S
    O95    C47       1.27675      .   S
    O31    C40       1.27679      .   S
    O32    C41       1.27630      .   S
    O34    C43       1.27698      .   S
    O33    C42       1.27646      .   S
    O99    C51       1.27632      .   S
    O108   C52       1.27268      .   S
    O111   C55       1.27305      .   S
    O96    C48       1.27700      .   S
    O98    C50       1.27721      .   S
    O97    C49       1.27697      .   S
    O110   C54       1.27319      .   S
    O109   C53       1.27375      .   S
    C44    O88       1.26073      .   S
    C45    O89       1.27163      .   S
    C46    O90       1.27160      .   S
    C47    O91       1.27142      .   S
    C40    O35       1.27450      .   S
    C41    O85       1.27493      .   S
    C43    O87       1.27436      .   S
    C42    O86       1.27470      .   S
    C52    O104      1.27462      .   S
    C51    O103      1.27351      .   S
    C55    O107      1.27525      .   S
    C54    O106      1.27591      .   S
    C48    O100      1.27336      .   S
    C50    O102      1.27333      .   S
    C53    O105      1.27443      .   S
    C49    O101      1.27362      .   S
    O88    Zn11      2.08066      .   S
    O89    Zn12      2.07642      .   S
    O90    Zn13      2.07760      .   S
    O91    Zn14      2.08008      .   S
    O85    Zn12      2.09982      .   S
    O35    Zn11      2.10441      .   S
    O87    Zn14      2.11380      .   S
    O86    Zn13      2.10399      .   S
    O104   Zn11      2.06348      .   S
    O103   Zn14      2.05534      .   S
    O107   Zn14      2.06442      .   S
    O100   Zn11      2.06461      .   S
    O101   Zn12      2.06934      .   S
    O102   Zn13      2.06599      .   S
    O106   Zn13      2.06443      .   S
    O105   Zn12      2.06236      .   S
    Zn5    O82       2.06231      .   S
    Zn5    O78       2.06943      .   S
    Zn5    O62       2.09978      .   S
    Zn5    O66       2.07636      .   S
    Zn4    O81       2.06493      .   S
    Zn4    O77       2.06614      .   S
    Zn4    O61       2.10277      .   S
    Zn4    O65       2.07728      .   S
    Zn6    O79       2.06443      .   S
    Zn6    O83       2.06317      .   S
    Zn6    O63       2.10456      .   S
    Zn6    O67       2.07858      .   S
    Zn3    O80       2.06512      .   S
    Zn3    O76       2.05436      .   S
    Zn3    O60       2.11366      .   S
    Zn3    O64       2.08113      .   S
    O82    C38       1.27441      .   S
    O81    C37       1.27503      .   S
    O77    C25       1.27339      .   S
    O78    C26       1.27356      .   S
    O79    C27       1.27335      .   S
    O80    C36       1.27519      .   S
    O83    C39       1.27489      .   S
    O76    C24       1.27355      .   S
    O61    C17       1.27459      .   S
    O60    C16       1.27433      .   S
    O63    C19       1.27448      .   S
    O62    C18       1.27492      .   S
    O64    C20       1.27124      .   S
    O65    C21       1.27167      .   S
    O66    C22       1.27162      .   S
    O67    C23       1.27056      .   S
    C38    O29       1.27372      .   S
    C26    O74       1.27704      .   S
    C37    O28       1.27318      .   S
    C25    O73       1.27704      .   S
    C27    O75       1.27701      .   S
    C36    O84       1.27295      .   S
    C39    O30       1.27261      .   S
    C24    O72       1.27641      .   S
    C17    O57       1.27668      .   S
    C16    O56       1.27700      .   S
    C18    O58       1.27641      .   S
    C19    O59       1.27668      .   S
    C20    O68       1.27695      .   S
    C21    O69       1.27636      .   S
    C22    O70       1.27635      .   S
    C23    O71       1.27733      .   S
    O29    Zn1       2.06033      .   S
    O28    Zn0       2.07191      .   S
    O74    Zn1       2.09061      .   S
    O73    Zn0       2.08723      .   S
    O75    Zn2       2.08874      .   S
    O84    Zn15      2.06908      .   S
    O30    Zn2       2.07266      .   S
    O72    Zn15      2.10246      .   S
    O57    Zn0       2.08035      .   S
    O56    Zn15      2.07821      .   S
    O58    Zn1       2.08892      .   S
    O59    Zn2       2.07751      .   S
    O68    Zn15      2.06060      .   S
    O70    Zn1       2.06525      .   S
    O69    Zn0       2.06351      .   S
    O71    Zn2       2.06287      .   S
    Zn15   Zn3       2.86122      .   S
    Zn0    Zn4       2.85979      .   S
    Zn1    Zn5       2.86131      .   S
    Zn2    Zn6       2.86162      .   S
    Zn7    Zn11      2.86162      .   S
    Zn8    Zn12      2.86103      .   S
    Zn9    Zn13      2.86091      .   S
    Zn10   Zn14      2.86121      .   S
