# CIF file generated by openbabel 2.4.90, see http://openbabel.sf.net
data_I
_chemical_name_common ''
_cell_length_a 22.113
_cell_length_b 22.118
_cell_length_c 14.068
_cell_angle_alpha 88.045
_cell_angle_beta 90.645
_cell_angle_gamma 80.131
_space_group_name_H-M_alt 'P 1'
_space_group_name_Hall 'P 1'
loop_
    _symmetry_equiv_pos_as_xyz
    x,y,z
loop_
    _atom_site_label
    _atom_site_type_symbol
    _atom_site_fract_x
    _atom_site_fract_y
    _atom_site_fract_z
    _atom_site_occupancy
    C0      C    0.35946   0.29029   0.70668   1.000
    C1      C    0.36086   0.78992   0.70660   1.000
    C2      C    0.86041   0.29003   0.70693   1.000
    C3      C    0.86050   0.78989   0.70696   1.000
    C4      C    0.37751   0.04954   0.71460   1.000
    C5      C    0.37846   0.54935   0.71482   1.000
    C6      C    0.87737   0.04944   0.71496   1.000
    C7      C    0.87845   0.54932   0.71500   1.000
    C8      C    0.24788   0.17348   0.70399   1.000
    C9      C    0.24896   0.67314   0.70273   1.000
    C10     C    0.74812   0.17375   0.70249   1.000
    C11     C    0.74895   0.67303   0.70276   1.000
    C12     C    0.48669   0.16622   0.70316   1.000
    C13     C    0.48783   0.66542   0.70270   1.000
    C14     C    0.98688   0.16557   0.70249   1.000
    C15     C    0.98779   0.66554   0.70395   1.000
    C16     C    0.13948   0.21011   0.29303   1.000
    C17     C    0.13958   0.70995   0.29304   1.000
    C18     C    0.63914   0.20995   0.29340   1.000
    C19     C    0.64053   0.70964   0.29329   1.000
    C20     C    0.12155   0.45067   0.28492   1.000
    C21     C    0.12262   0.95055   0.28504   1.000
    C22     C    0.62171   0.45054   0.28520   1.000
    C23     C    0.62247   0.95038   0.28542   1.000
    C24     C    0.25106   0.32695   0.29722   1.000
    C25     C    0.25185   0.82623   0.29753   1.000
    C26     C    0.75114   0.32620   0.29728   1.000
    C27     C    0.75211   0.82640   0.29600   1.000
    C28     C    0.01220   0.33442   0.29591   1.000
    C29     C    0.01309   0.83443   0.29751   1.000
    C30     C    0.51218   0.33458   0.29720   1.000
    C31     C    0.51327   0.83372   0.29684   1.000
