# CIF file generated by openbabel 2.4.90, see http://openbabel.sf.net
data_I
_chemical_name_common ''
_cell_length_a 22.113
_cell_length_b 22.118
_cell_length_c 14.068
_cell_angle_alpha 88.045
_cell_angle_beta 90.645
_cell_angle_gamma 80.131
_space_group_name_H-M_alt 'P 1'
_space_group_name_Hall 'P 1'
loop_
    _symmetry_equiv_pos_as_xyz
    x,y,z
loop_
    _atom_site_label
    _atom_site_type_symbol
    _atom_site_fract_x
    _atom_site_fract_y
    _atom_site_fract_z
    _atom_site_occupancy
    C0      C    0.36950   0.16679   0.80792   1.000
    C1      C    0.37004   0.66674   0.80750   1.000
    C2      C    0.86929   0.16689   0.80760   1.000
    C3      C    0.86999   0.66666   0.80795   1.000
    C4      C    0.36571   0.17222   0.60440   1.000
    C5      C    0.36717   0.67189   0.60407   1.000
    C6      C    0.86669   0.17188   0.60406   1.000
    C7      C    0.86716   0.67193   0.60439   1.000
    C8      C    0.13001   0.33333   0.19202   1.000
    C9      C    0.13069   0.83310   0.19241   1.000
    C10     C    0.62998   0.33314   0.19241   1.000
    C11     C    0.63049   0.83316   0.19206   1.000
    C12     C    0.13284   0.32806   0.39558   1.000
    C13     C    0.13329   0.82811   0.39593   1.000
    C14     C    0.63285   0.32804   0.39592   1.000
    C15     C    0.63421   0.82773   0.39558   1.000
    C16     C    0.36113   0.37056   0.55650   1.000
    C17     C    0.36377   0.86989   0.55618   1.000
    C18     C    0.86427   0.36981   0.55651   1.000
    C19     C    0.86185   0.87018   0.55680   1.000
    C20     C    0.37077   0.48150   0.56035   1.000
    C21     C    0.37218   0.98114   0.56009   1.000
    C22     C    0.87310   0.48096   0.56051   1.000
    C23     C    0.87019   0.98144   0.56064   1.000
    C24     C    0.38026   0.46885   0.86523   1.000
    C25     C    0.37788   0.96939   0.86510   1.000
    C26     C    0.87817   0.46927   0.86550   1.000
    C27     C    0.87963   0.96888   0.86553   1.000
    C28     C    0.37189   0.35698   0.86151   1.000
    C29     C    0.37060   0.85727   0.86136   1.000
    C30     C    0.86994   0.35736   0.86169   1.000
    C31     C    0.87205   0.85680   0.86182   1.000
    C32     C    0.16849   0.19214   0.55311   1.000
    C33     C    0.16879   0.69263   0.55284   1.000
    C34     C    0.66786   0.19359   0.55228   1.000
    C35     C    0.66914   0.69240   0.55253   1.000
    C36     C    0.05650   0.18877   0.55256   1.000
    C37     C    0.05672   0.68971   0.55353   1.000
    C38     C    0.55583   0.19082   0.55269   1.000
    C39     C    0.55709   0.68936   0.55259   1.000
    C40     C    0.06581   0.14594   0.85290   1.000
    C41     C    0.06769   0.64434   0.85309   1.000
    C42     C    0.56669   0.14434   0.85191   1.000
    C43     C    0.56737   0.64433   0.85220   1.000
    C44     C    0.17910   0.14801   0.85327   1.000
    C45     C    0.18097   0.64633   0.85231   1.000
    C46     C    0.67993   0.14631   0.85145   1.000
    C47     C    0.68067   0.64633   0.85209   1.000
    C48     C    0.46081   0.15341   0.45696   1.000
    C49     C    0.46236   0.65223   0.45653   1.000
    C50     C    0.96117   0.15260   0.45580   1.000
    C51     C    0.96255   0.65296   0.45699   1.000
    C52     C    0.46735   0.15109   0.27998   1.000
    C53     C    0.46895   0.65012   0.27955   1.000
    C54     C    0.96723   0.15044   0.27870   1.000
    C55     C    0.96910   0.65065   0.28002   1.000
    C56     C    0.26854   0.18397   0.26921   1.000
    C57     C    0.27012   0.68365   0.26859   1.000
    C58     C    0.76842   0.18369   0.26921   1.000
    C59     C    0.77027   0.68311   0.26933   1.000
    C60     C    0.27056   0.18462   0.44625   1.000
    C61     C    0.27213   0.68414   0.44571   1.000
    C62     C    0.77092   0.18434   0.44631   1.000
    C63     C    0.77229   0.68389   0.44631   1.000
    C64     C    0.44406   0.09021   0.14519   1.000
    C65     C    0.44565   0.59001   0.14404   1.000
    C66     C    0.94358   0.08969   0.14438   1.000
    C67     C    0.94625   0.59037   0.14453   1.000
    C68     C    0.44144   0.09340   0.96703   1.000
    C69     C    0.44253   0.59344   0.96585   1.000
    C70     C    0.94088   0.09310   0.96619   1.000
    C71     C    0.94293   0.59367   0.96636   1.000
    C72     C    0.30112   0.24341   0.95551   1.000
    C73     C    0.30227   0.74349   0.95555   1.000
    C74     C    0.80105   0.24354   0.95515   1.000
    C75     C    0.80149   0.74264   0.95620   1.000
    C76     C    0.29515   0.24541   0.13324   1.000
    C77     C    0.29668   0.74517   0.13328   1.000
    C78     C    0.79495   0.24518   0.13294   1.000
    C79     C    0.79606   0.74439   0.13392   1.000
    C80     C    0.13812   0.12982   0.44319   1.000
    C81     C    0.13569   0.63019   0.44346   1.000
    C82     C    0.63626   0.12998   0.44391   1.000
    C83     C    0.63884   0.62938   0.44345   1.000
    C84     C    0.12980   0.01856   0.43936   1.000
    C85     C    0.12688   0.51904   0.43948   1.000
    C86     C    0.62781   0.01873   0.43999   1.000
    C87     C    0.62928   0.51843   0.43960   1.000
    C88     C    0.12037   0.03111   0.13440   1.000
    C89     C    0.12184   0.53070   0.13445   1.000
    C90     C    0.62202   0.03051   0.13497   1.000
    C91     C    0.61990   0.53103   0.13475   1.000
    C92     C    0.12794   0.14318   0.13817   1.000
    C93     C    0.13006   0.64261   0.13828   1.000
    C94     C    0.62929   0.14264   0.13874   1.000
    C95     C    0.62817   0.64293   0.13840   1.000
    C96     C    0.33088   0.30757   0.44740   1.000
    C97     C    0.33211   0.80637   0.44772   1.000
    C98     C    0.83131   0.30715   0.44719   1.000
    C99     C    0.83150   0.80781   0.44689   1.000
    C100    C    0.44293   0.31062   0.44740   1.000
    C101    C    0.44415   0.80913   0.44731   1.000
    C102    C    0.94331   0.31032   0.44644   1.000
    C103    C    0.94348   0.81123   0.44744   1.000
    C104    C    0.43263   0.35570   0.14774   1.000
    C105    C    0.43328   0.85564   0.14809   1.000
    C106    C    0.93227   0.35531   0.14676   1.000
    C107    C    0.93415   0.85406   0.14710   1.000
    C108    C    0.31934   0.35367   0.14790   1.000
    C109    C    0.32003   0.85369   0.14857   1.000
    C110    C    0.81906   0.35298   0.14756   1.000
    C111    C    0.82087   0.85196   0.14674   1.000
    C112    C    0.03744   0.34703   0.54297   1.000
    C113    C    0.03879   0.84744   0.54421   1.000
    C114    C    0.53764   0.34772   0.54348   1.000
    C115    C    0.53918   0.84655   0.54305   1.000
    C116    C    0.03089   0.34934   0.71995   1.000
    C117    C    0.03274   0.84954   0.72120   1.000
    C118    C    0.53105   0.34986   0.72046   1.000
    C119    C    0.53265   0.84889   0.72003   1.000
    C120    C    0.22972   0.31688   0.73060   1.000
    C121    C    0.23156   0.81595   0.73081   1.000
    C122    C    0.72988   0.31634   0.73142   1.000
    C123    C    0.73146   0.81601   0.73070   1.000
    C124    C    0.22770   0.31610   0.55366   1.000
    C125    C    0.22905   0.81538   0.55370   1.000
    C126    C    0.72787   0.31583   0.55431   1.000
    C127    C    0.72942   0.81533   0.55372   1.000
    C128    C    0.05375   0.40962   0.85545   1.000
    C129    C    0.05652   0.91025   0.85557   1.000
    C130    C    0.55433   0.40995   0.85600   1.000
    C131    C    0.55595   0.90978   0.85480   1.000
    C132    C    0.05707   0.40631   0.03361   1.000
    C133    C    0.05923   0.90692   0.03370   1.000
    C134    C    0.55747   0.40649   0.03419   1.000
    C135    C    0.55855   0.90657   0.03296   1.000
    C136    C    0.19852   0.25735   0.04370   1.000
    C137    C    0.19885   0.75630   0.04493   1.000
    C138    C    0.69778   0.25649   0.04444   1.000
    C139    C    0.69887   0.75656   0.04447   1.000
    C140    C    0.20394   0.25559   0.86600   1.000
    C141    C    0.20490   0.75454   0.86715   1.000
    C142    C    0.70334   0.25482   0.86670   1.000
    C143    C    0.70485   0.75458   0.86674   1.000
    C144    C    0.35946   0.29029   0.70668   1.000
    C145    C    0.36086   0.78992   0.70660   1.000
    C146    C    0.86041   0.29003   0.70693   1.000
    C147    C    0.86050   0.78989   0.70696   1.000
    C148    C    0.36556   0.35695   0.70885   1.000
    C149    C    0.36634   0.85673   0.70861   1.000
    C150    C    0.86625   0.35675   0.70894   1.000
    C151    C    0.86607   0.85667   0.70914   1.000
    C152    C    0.36570   0.39210   0.62395   1.000
    C153    C    0.36725   0.89169   0.62367   1.000
    C154    C    0.86765   0.39162   0.62402   1.000
    C155    C    0.86604   0.89183   0.62423   1.000
    C156    C    0.37114   0.45382   0.62590   1.000
    C157    C    0.37200   0.95358   0.62570   1.000
    C158    C    0.87267   0.45344   0.62610   1.000
    C159    C    0.87079   0.95371   0.62622   1.000
    C160    C    0.37624   0.48178   0.71000   1.000
    C161    C    0.37574   0.98187   0.71280   1.000
    C162    C    0.87639   0.48171   0.71324   1.000
    C163    C    0.87556   0.98178   0.71328   1.000
    C164    C    0.37672   0.44656   0.79800   1.000
    C165    C    0.37541   0.94685   0.79785   1.000
    C166    C    0.87568   0.44676   0.79826   1.000
    C167    C    0.87629   0.94653   0.79830   1.000
    C168    C    0.37163   0.38472   0.79597   1.000
    C169    C    0.37095   0.88487   0.79580   1.000
    C170    C    0.87073   0.38489   0.79615   1.000
    C171    C    0.87169   0.88456   0.79627   1.000
    C172    C    0.37751   0.04954   0.71460   1.000
    C173    C    0.37846   0.54935   0.71482   1.000
    C174    C    0.87737   0.04944   0.71496   1.000
    C175    C    0.87845   0.54932   0.71500   1.000
    C176    C    0.24788   0.17348   0.70399   1.000
    C177    C    0.24896   0.67314   0.70273   1.000
    C178    C    0.74812   0.17375   0.70249   1.000
    C179    C    0.74895   0.67303   0.70276   1.000
    C180    C    0.18066   0.17042   0.70348   1.000
    C181    C    0.18177   0.66988   0.70279   1.000
    C182    C    0.68087   0.17042   0.70214   1.000
    C183    C    0.68178   0.66977   0.70256   1.000
    C184    C    0.14612   0.18138   0.61854   1.000
    C185    C    0.14675   0.68150   0.61839   1.000
    C186    C    0.64584   0.18229   0.61775   1.000
    C187    C    0.64696   0.68129   0.61795   1.000
    C188    C    0.08359   0.17958   0.61819   1.000
    C189    C    0.08417   0.67990   0.61873   1.000
    C190    C    0.58322   0.18074   0.61793   1.000
    C191    C    0.58439   0.67964   0.61794   1.000
    C192    C    0.05449   0.16673   0.70275   1.000
    C193    C    0.05549   0.66646   0.70340   1.000
    C194    C    0.55444   0.16705   0.70241   1.000
    C195    C    0.55553   0.66629   0.70248   1.000
    C196    C    0.08903   0.15564   0.78769   1.000
    C197    C    0.09055   0.65455   0.78777   1.000
    C198    C    0.58955   0.15479   0.78672   1.000
    C199    C    0.59039   0.65447   0.78706   1.000
    C200    C    0.15165   0.15720   0.78796   1.000
    C201    C    0.15319   0.65603   0.78739   1.000
    C202    C    0.65220   0.15624   0.78651   1.000
    C203    C    0.65302   0.65597   0.78703   1.000
    C204    C    0.48669   0.16622   0.70316   1.000
    C205    C    0.48783   0.66542   0.70270   1.000
    C206    C    0.98688   0.16557   0.70249   1.000
    C207    C    0.98779   0.66554   0.70395   1.000
    C208    C    0.41962   0.15930   0.41202   1.000
    C209    C    0.42118   0.65835   0.41155   1.000
    C210    C    0.91987   0.15868   0.41112   1.000
    C211    C    0.92136   0.65884   0.41205   1.000
    C212    C    0.42265   0.15776   0.31361   1.000
    C213    C    0.42424   0.65691   0.31313   1.000
    C214    C    0.92263   0.15718   0.31269   1.000
    C215    C    0.92440   0.65728   0.31360   1.000
    C216    C    0.36806   0.16710   0.25927   1.000
    C217    C    0.36965   0.66654   0.25875   1.000
    C218    C    0.86790   0.16665   0.25869   1.000
    C219    C    0.86979   0.66652   0.25931   1.000
    C220    C    0.31233   0.17681   0.30770   1.000
    C221    C    0.31391   0.67630   0.30713   1.000
    C222    C    0.81231   0.17643   0.30745   1.000
    C223    C    0.81407   0.67609   0.30778   1.000
    C224    C    0.31296   0.17711   0.40640   1.000
    C225    C    0.31452   0.67651   0.40585   1.000
    C226    C    0.81320   0.17672   0.40617   1.000
    C227    C    0.81469   0.67646   0.40646   1.000
    C228    C    0.36915   0.16737   0.15426   1.000
    C229    C    0.37069   0.66707   0.15373   1.000
    C230    C    0.86884   0.16700   0.15367   1.000
    C231    C    0.87071   0.66688   0.15429   1.000
    C232    C    0.41138   0.12495   0.10606   1.000
    C233    C    0.41285   0.62478   0.10519   1.000
    C234    C    0.91097   0.12456   0.10535   1.000
    C235    C    0.91314   0.62487   0.10572   1.000
    C236    C    0.41033   0.12631   0.00000   1.000
    C237    C    0.41155   0.62628   0.00000   1.000
    C238    C    0.90991   0.12606   0.00000   1.000
    C239    C    0.91172   0.62629   0.00000   1.000
    C240    C    0.33087   0.20969   0.00000   1.000
    C241    C    0.33209   0.70967   0.00000   1.000
    C242    C    0.83065   0.20965   0.00000   1.000
    C243    C    0.83162   0.70907   0.00000   1.000
    C244    C    0.32798   0.21052   0.09939   1.000
    C245    C    0.32943   0.71034   0.09919   1.000
    C246    C    0.82773   0.21030   0.09896   1.000
    C247    C    0.82905   0.70978   0.09900   1.000
    C248    C    0.13948   0.21011   0.29303   1.000
    C249    C    0.13958   0.70995   0.29304   1.000
    C250    C    0.63914   0.20995   0.29340   1.000
    C251    C    0.64053   0.70964   0.29329   1.000
    C252    C    0.13391   0.14333   0.29080   1.000
    C253    C    0.13374   0.64323   0.29103   1.000
    C254    C    0.63363   0.14314   0.29147   1.000
    C255    C    0.63446   0.64297   0.29110   1.000
    C256    C    0.13393   0.10816   0.37576   1.000
    C257    C    0.13233   0.60837   0.37595   1.000
    C258    C    0.63275   0.10819   0.37642   1.000
    C259    C    0.63431   0.60783   0.37603   1.000
    C260    C    0.12920   0.04628   0.37377   1.000
    C261    C    0.12731   0.54655   0.37388   1.000
    C262    C    0.62798   0.04630   0.37439   1.000
    C263    C    0.62892   0.54610   0.37405   1.000
    C264    C    0.12443   0.01821   0.28671   1.000
    C265    C    0.12361   0.51827   0.28675   1.000
    C266    C    0.62422   0.01803   0.28727   1.000
    C267    C    0.62387   0.51812   0.28699   1.000
    C268    C    0.12370   0.05346   0.20169   1.000
    C269    C    0.12432   0.55322   0.20172   1.000
    C270    C    0.62451   0.05305   0.20222   1.000
    C271    C    0.62339   0.55333   0.20198   1.000
    C272    C    0.12830   0.11543   0.20372   1.000
    C273    C    0.12927   0.61509   0.20382   1.000
    C274    C    0.62897   0.11502   0.20420   1.000
    C275    C    0.62843   0.61519   0.20401   1.000
    C276    C    0.12155   0.45067   0.28492   1.000
    C277    C    0.12262   0.95055   0.28504   1.000
    C278    C    0.62171   0.45054   0.28520   1.000
    C279    C    0.62247   0.95038   0.28542   1.000
    C280    C    0.25106   0.32695   0.29722   1.000
    C281    C    0.25185   0.82623   0.29753   1.000
    C282    C    0.75114   0.32620   0.29728   1.000
    C283    C    0.75211   0.82640   0.29600   1.000
    C284    C    0.31823   0.33022   0.29743   1.000
    C285    C    0.31909   0.82956   0.29788   1.000
    C286    C    0.81829   0.32960   0.29715   1.000
    C287    C    0.81931   0.82952   0.29652   1.000
    C288    C    0.35306   0.31869   0.38203   1.000
    C289    C    0.35413   0.81768   0.38220   1.000
    C290    C    0.85331   0.31823   0.38159   1.000
    C291    C    0.85386   0.81858   0.38146   1.000
    C292    C    0.41562   0.32034   0.38204   1.000
    C293    C    0.41675   0.81922   0.38208   1.000
    C294    C    0.91586   0.31998   0.38121   1.000
    C295    C    0.91638   0.82041   0.38181   1.000
    C296    C    0.44449   0.33371   0.29750   1.000
    C297    C    0.44552   0.83291   0.29759   1.000
    C298    C    0.94451   0.33339   0.29649   1.000
    C299    C    0.94548   0.83327   0.29720   1.000
    C300    C    0.40962   0.34554   0.21294   1.000
    C301    C    0.41042   0.84520   0.21329   1.000
    C302    C    0.90945   0.34510   0.21211   1.000
    C303    C    0.91094   0.84435   0.21231   1.000
    C304    C    0.34698   0.34403   0.21290   1.000
    C305    C    0.34777   0.84375   0.21350   1.000
    C306    C    0.84684   0.34343   0.21250   1.000
    C307    C    0.84832   0.84277   0.21204   1.000
    C308    C    0.01220   0.33442   0.29591   1.000
    C309    C    0.01309   0.83443   0.29751   1.000
    C310    C    0.51218   0.33458   0.29720   1.000
    C311    C    0.51327   0.83372   0.29684   1.000
    C312    C    0.07863   0.34114   0.58792   1.000
    C313    C    0.08010   0.84127   0.58880   1.000
    C314    C    0.57882   0.34161   0.58846   1.000
    C315    C    0.58036   0.84067   0.58798   1.000
    C316    C    0.07560   0.34270   0.68634   1.000
    C317    C    0.07734   0.84274   0.68732   1.000
    C318    C    0.57576   0.34306   0.68688   1.000
    C319    C    0.57734   0.84222   0.68639   1.000
    C320    C    0.13020   0.33346   0.74066   1.000
    C321    C    0.13207   0.83316   0.74130   1.000
    C322    C    0.63034   0.33344   0.74126   1.000
    C323    C    0.63194   0.83288   0.74070   1.000
    C324    C    0.18592   0.32389   0.69219   1.000
    C325    C    0.18767   0.82329   0.69257   1.000
    C326    C    0.68609   0.32368   0.69287   1.000
    C327    C    0.68766   0.82317   0.69228   1.000
    C328    C    0.18530   0.32352   0.59350   1.000
    C329    C    0.18677   0.82305   0.59380   1.000
    C330    C    0.68547   0.32346   0.59416   1.000
    C331    C    0.68703   0.82285   0.59357   1.000
    C332    C    0.12928   0.33311   0.84568   1.000
    C333    C    0.13114   0.83283   0.84634   1.000
    C334    C    0.62932   0.33291   0.84628   1.000
    C335    C    0.63086   0.83262   0.84573   1.000
    C336    C    0.08686   0.37511   0.89426   1.000
    C337    C    0.08908   0.87536   0.89463   1.000
    C338    C    0.58714   0.37518   0.89484   1.000
    C339    C    0.58863   0.87503   0.89393   1.000
    C340    C    0.08828   0.37369   0.99311   1.000
    C341    C    0.09014   0.87390   0.99346   1.000
    C342    C    0.58846   0.37367   0.99368   1.000
    C343    C    0.58967   0.87366   0.99270   1.000
    C344    C    0.16839   0.29092   0.99870   1.000
    C345    C    0.16929   0.79020   0.99960   1.000
    C346    C    0.66794   0.29029   0.99933   1.000
    C347    C    0.66912   0.79028   0.99910   1.000
    C348    C    0.17095   0.29020   0.90017   1.000
    C349    C    0.17219   0.78949   0.90100   1.000
    C350    C    0.67058   0.28964   0.90080   1.000
    C351    C    0.67202   0.78946   0.90059   1.000
    C352    C    0.36575   0.16888   0.45800   1.000
    C353    C    0.36729   0.66812   0.45750   1.000
    C354    C    0.86612   0.16839   0.45747   1.000
    C355    C    0.86749   0.66839   0.45805   1.000
    C356    C    0.37078   0.16801   0.95503   1.000
    C357    C    0.37183   0.66803   0.95451   1.000
    C358    C    0.87048   0.16796   0.95450   1.000
    C359    C    0.87166   0.66773   0.95505   1.000
    C360    C    0.13251   0.33159   0.54192   1.000
    C361    C    0.13385   0.83150   0.54250   1.000
    C362    C    0.63271   0.33183   0.54248   1.000
    C363    C    0.63423   0.83107   0.54197   1.000
    C364    C    0.12835   0.33226   0.04492   1.000
    C365    C    0.12953   0.83197   0.04551   1.000
    C366    C    0.62819   0.33192   0.04550   1.000
    C367    C    0.62921   0.83195   0.04495   1.000
    C368    C    0.35984   0.26145   0.78694   1.000
    C369    C    0.35931   0.76159   0.78690   1.000
    C370    C    0.85671   0.26224   0.78712   1.000
    C371    C    0.85944   0.76135   0.78719   1.000
    C372    C    0.35433   0.26763   0.62550   1.000
    C373    C    0.35794   0.76664   0.62538   1.000
    C374    C    0.85951   0.26628   0.62572   1.000
    C375    C    0.85717   0.76682   0.62567   1.000
    C376    C    0.37791   0.07811   0.63472   1.000
    C377    C    0.37738   0.57813   0.63483   1.000
    C378    C    0.87481   0.07833   0.63490   1.000
    C379    C    0.87747   0.57810   0.63512   1.000
    C380    C    0.37748   0.07316   0.79617   1.000
    C381    C    0.38004   0.57278   0.79629   1.000
    C382    C    0.88019   0.07280   0.79627   1.000
    C383    C    0.87993   0.57274   0.79656   1.000
    C384    C    0.27433   0.17463   0.78486   1.000
    C385    C    0.27587   0.67239   0.78366   1.000
    C386    C    0.77507   0.17186   0.78357   1.000
    C387    C    0.77578   0.67238   0.78374   1.000
    C388    C    0.27327   0.17531   0.62338   1.000
    C389    C    0.27385   0.67706   0.62208   1.000
    C390    C    0.77302   0.17899   0.62212   1.000
    C391    C    0.77391   0.67691   0.62216   1.000
    C392    C    0.45855   0.17190   0.62289   1.000
    C393    C    0.46041   0.66930   0.62195   1.000
    C394    C    0.96015   0.16693   0.62152   1.000
    C395    C    0.96020   0.66958   0.62333   1.000
    C396    C    0.46248   0.16044   0.78390   1.000
    C397    C    0.46302   0.66150   0.78340   1.000
    C398    C    0.96143   0.16387   0.78308   1.000
    C399    C    0.96310   0.66140   0.78466   1.000
    C400    C    0.14056   0.23864   0.21279   1.000
    C401    C    0.14328   0.73775   0.21286   1.000
    C402    C    0.64032   0.23826   0.21303   1.000
    C403    C    0.64018   0.73848   0.21303   1.000
    C404    C    0.14281   0.23317   0.37432   1.000
    C405    C    0.14047   0.73370   0.37425   1.000
    C406    C    0.64241   0.23321   0.37457   1.000
    C407    C    0.64560   0.73231   0.37448   1.000
    C408    C    0.12255   0.42189   0.36400   1.000
    C409    C    0.12519   0.92166   0.36510   1.000
    C410    C    0.62257   0.42182   0.36520   1.000
    C411    C    0.62212   0.92179   0.36531   1.000
    C412    C    0.12007   0.42723   0.20345   1.000
    C413    C    0.11981   0.92718   0.20373   1.000
    C414    C    0.62039   0.42705   0.20370   1.000
    C415    C    0.62249   0.92678   0.20385   1.000
    C416    C    0.22423   0.32761   0.21624   1.000
    C417    C    0.22489   0.82814   0.21646   1.000
    C418    C    0.72434   0.32605   0.21641   1.000
    C419    C    0.72565   0.82536   0.21512   1.000
    C420    C    0.22609   0.32307   0.37782   1.000
    C421    C    0.22696   0.82098   0.37791   1.000
    C422    C    0.72615   0.32304   0.37799   1.000
    C423    C    0.72673   0.82442   0.37660   1.000
    C424    C    0.03979   0.33043   0.37650   1.000
    C425    C    0.03982   0.83306   0.37848   1.000
    C426    C    0.53965   0.33058   0.37800   1.000
    C427    C    0.54140   0.82808   0.37713   1.000
    C428    C    0.03687   0.33859   0.21519   1.000
    C429    C    0.03855   0.83612   0.21692   1.000
    C430    C    0.53697   0.33859   0.21650   1.000
    C431    C    0.53751   0.83944   0.21609   1.000
    O432    O    0.41086   0.12563   0.05303   1.000
    O433    O    0.39056   0.14716   0.97752   1.000
    O434    O    0.42589   0.10986   0.98352   1.000
    O435    O    0.83033   0.70942   0.04950   1.000
    O436    O    0.85164   0.68840   0.97753   1.000
    O437    O    0.81655   0.72585   0.97810   1.000
    O438    O    0.82919   0.20998   0.04948   1.000
    O439    O    0.85057   0.18881   0.97725   1.000
    O440    O    0.81585   0.22659   0.97758   1.000
    O441    O    0.33076   0.71001   0.04960   1.000
    O442    O    0.35196   0.68885   0.97726   1.000
    O443    O    0.31718   0.72658   0.97778   1.000
    O444    O    0.32943   0.21011   0.04970   1.000
    O445    O    0.35083   0.18885   0.97752   1.000
    O446    O    0.31600   0.22655   0.97776   1.000
    O447    O    0.91243   0.62558   0.05286   1.000
    O448    O    0.89169   0.64701   0.97753   1.000
    O449    O    0.92732   0.60998   0.98318   1.000
    O450    O    0.91044   0.12531   0.05268   1.000
    O451    O    0.89020   0.14701   0.97725   1.000
    O452    O    0.92540   0.10958   0.98310   1.000
    O453    O    0.41220   0.62553   0.05260   1.000
    O454    O    0.39169   0.64715   0.97726   1.000
    O455    O    0.42704   0.60986   0.98293   1.000
    O456    O    0.57411   0.89012   0.01283   1.000
    O457    O    0.07268   0.39000   0.01336   1.000
    O458    O    0.07468   0.89041   0.01358   1.000
    O459    O    0.57296   0.39008   0.01394   1.000
    O460    O    0.18345   0.27414   0.02120   1.000
    O461    O    0.68286   0.27339   0.02189   1.000
    O462    O    0.68400   0.77342   0.02179   1.000
    O463    O    0.12918   0.33279   0.11847   1.000
    O464    O    0.10831   0.35297   0.01902   1.000
    O465    O    0.14837   0.31159   0.02181   1.000
    O466    O    0.18407   0.77325   0.02227   1.000
    O467    O    0.62985   0.83256   0.11851   1.000
    O468    O    0.60944   0.85281   0.01883   1.000
    O469    O    0.64917   0.81111   0.02203   1.000
    O470    O    0.62908   0.33253   0.11896   1.000
    O471    O    0.60832   0.35280   0.01959   1.000
    O472    O    0.64806   0.31111   0.02242   1.000
    O473    O    0.13011   0.83253   0.11896   1.000
    O474    O    0.10983   0.85294   0.01949   1.000
    O475    O    0.14941   0.81108   0.02256   1.000
    O476    O    0.81134   0.22774   0.11595   1.000
    O477    O    0.84828   0.18865   0.12632   1.000
    O478    O    0.81255   0.72709   0.11646   1.000
    O479    O    0.84988   0.68833   0.12665   1.000
    O480    O    0.31306   0.72776   0.11624   1.000
    O481    O    0.35006   0.68871   0.12646   1.000
    O482    O    0.31157   0.22796   0.11632   1.000
    O483    O    0.34857   0.18894   0.12683   1.000
    O484    O    0.42925   0.60739   0.12462   1.000
    O485    O    0.39177   0.64593   0.12946   1.000
    O486    O    0.92727   0.10712   0.12487   1.000
    O487    O    0.88990   0.14578   0.12951   1.000
    O488    O    0.92969   0.60762   0.12513   1.000
    O489    O    0.89192   0.64588   0.13001   1.000
    O490    O    0.42772   0.10758   0.12563   1.000
    O491    O    0.39026   0.14616   0.13016   1.000
    O492    O    0.12204   0.04228   0.16805   1.000
    O493    O    0.12308   0.54196   0.16809   1.000
    O494    O    0.62165   0.54218   0.16837   1.000
    O495    O    0.62326   0.04178   0.16860   1.000
    O496    O    0.12812   0.12930   0.17095   1.000
    O497    O    0.12967   0.62885   0.17105   1.000
    O498    O    0.62830   0.62906   0.17121   1.000
    O499    O    0.62913   0.12883   0.17147   1.000
    O500    O    0.83459   0.84736   0.17939   1.000
    O501    O    0.92086   0.35021   0.17944   1.000
    O502    O    0.92254   0.84921   0.17971   1.000
    O503    O    0.83295   0.34821   0.18003   1.000
    O504    O    0.42112   0.35062   0.18034   1.000
    O505    O    0.33316   0.34885   0.18040   1.000
    O506    O    0.42185   0.85042   0.18069   1.000
    O507    O    0.33390   0.84872   0.18104   1.000
    O508    O    0.86837   0.16682   0.20618   1.000
    O509    O    0.37017   0.66680   0.20624   1.000
    O510    O    0.36860   0.16723   0.20677   1.000
    O511    O    0.87025   0.66670   0.20680   1.000
    O512    O    0.12504   0.38028   0.19773   1.000
    O513    O    0.13528   0.28599   0.20241   1.000
    O514    O    0.08344   0.33596   0.20361   1.000
    O515    O    0.17712   0.33047   0.20413   1.000
    O516    O    0.62649   0.87997   0.19796   1.000
    O517    O    0.63533   0.78582   0.20255   1.000
    O518    O    0.67807   0.82926   0.20359   1.000
    O519    O    0.58400   0.83630   0.20408   1.000
    O520    O    0.62518   0.38009   0.19806   1.000
    O521    O    0.63515   0.28570   0.20272   1.000
    O522    O    0.67716   0.32959   0.20441   1.000
    O523    O    0.58347   0.33586   0.20446   1.000
    O524    O    0.12525   0.88014   0.19807   1.000
    O525    O    0.13698   0.78542   0.20264   1.000
    O526    O    0.17779   0.83062   0.20444   1.000
    O527    O    0.08462   0.83461   0.20467   1.000
    O528    O    0.12600   0.08444   0.20271   1.000
    O529    O    0.12407   0.03584   0.24420   1.000
    O530    O    0.12680   0.58415   0.20277   1.000
    O531    O    0.12397   0.53575   0.24424   1.000
    O532    O    0.62591   0.58426   0.20300   1.000
    O533    O    0.62363   0.53573   0.24449   1.000
    O534    O    0.62674   0.08404   0.20321   1.000
    O535    O    0.62437   0.03554   0.24475   1.000
    O536    O    0.12081   0.43895   0.24419   1.000
    O537    O    0.62105   0.43879   0.24445   1.000
    O538    O    0.13110   0.12938   0.24726   1.000
    O539    O    0.12122   0.93886   0.24439   1.000
    O540    O    0.13151   0.62916   0.24743   1.000
    O541    O    0.62248   0.93858   0.24464   1.000
    O542    O    0.63145   0.62908   0.24756   1.000
    O543    O    0.63130   0.12908   0.24784   1.000
    O544    O    0.87963   0.84356   0.21218   1.000
    O545    O    0.83381   0.83615   0.25428   1.000
    O546    O    0.87814   0.34427   0.21231   1.000
    O547    O    0.92698   0.33924   0.25430   1.000
    O548    O    0.92821   0.83881   0.25476   1.000
    O549    O    0.83257   0.33652   0.25483   1.000
    O550    O    0.14002   0.22437   0.25291   1.000
    O551    O    0.14143   0.72385   0.25295   1.000
    O552    O    0.37830   0.34478   0.21292   1.000
    O553    O    0.33261   0.33712   0.25517   1.000
    O554    O    0.42705   0.33962   0.25522   1.000
    O555    O    0.64035   0.72406   0.25316   1.000
    O556    O    0.63973   0.22410   0.25322   1.000
    O557    O    0.37909   0.84447   0.21340   1.000
    O558    O    0.42797   0.83905   0.25544   1.000
    O559    O    0.33343   0.83665   0.25569   1.000
    O560    O    0.73888   0.82588   0.25556   1.000
    O561    O    0.02453   0.33650   0.25555   1.000
    O562    O    0.52539   0.83658   0.25647   1.000
    O563    O    0.23764   0.32728   0.25673   1.000
    O564    O    0.73774   0.32612   0.25685   1.000
    O565    O    0.23837   0.82718   0.25700   1.000
    O566    O    0.52458   0.33658   0.25685   1.000
    O567    O    0.02582   0.83527   0.25722   1.000
    O568    O    0.84011   0.17154   0.28307   1.000
    O569    O    0.89527   0.16191   0.28569   1.000
    O570    O    0.34178   0.67142   0.28294   1.000
    O571    O    0.39695   0.66172   0.28594   1.000
    O572    O    0.34019   0.17195   0.28349   1.000
    O573    O    0.39535   0.16243   0.28644   1.000
    O574    O    0.84193   0.67130   0.28355   1.000
    O575    O    0.89709   0.66190   0.28646   1.000
    O576    O    0.29202   0.67998   0.28786   1.000
    O577    O    0.79036   0.18006   0.28833   1.000
    O578    O    0.29043   0.18039   0.28846   1.000
    O579    O    0.79217   0.67960   0.28856   1.000
    O580    O    0.94493   0.15381   0.29570   1.000
    O581    O    0.44659   0.65351   0.29634   1.000
    O582    O    0.44500   0.15442   0.29680   1.000
    O583    O    0.94675   0.65396   0.29681   1.000
    O584    O    0.12258   0.48447   0.28584   1.000
    O585    O    0.12205   0.43628   0.32446   1.000
    O586    O    0.12353   0.98438   0.28588   1.000
    O587    O    0.12391   0.93610   0.32507   1.000
    O588    O    0.62279   0.48433   0.28610   1.000
    O589    O    0.62214   0.43618   0.32520   1.000
    O590    O    0.62334   0.98421   0.28635   1.000
    O591    O    0.62229   0.93608   0.32537   1.000
    O592    O    0.12682   0.03225   0.33024   1.000
    O593    O    0.12546   0.53241   0.33032   1.000
    O594    O    0.62639   0.53211   0.33052   1.000
    O595    O    0.62610   0.03217   0.33083   1.000
    O596    O    0.13669   0.17672   0.29192   1.000
    O597    O    0.13392   0.12575   0.33328   1.000
    O598    O    0.13666   0.67659   0.29204   1.000
    O599    O    0.13304   0.62580   0.33349   1.000
    O600    O    0.63749   0.67631   0.29220   1.000
    O601    O    0.63438   0.62540   0.33357   1.000
    O602    O    0.63638   0.17654   0.29244   1.000
    O603    O    0.63319   0.12567   0.33395   1.000
    O604    O    0.14114   0.22164   0.33367   1.000
    O605    O    0.14003   0.72183   0.33365   1.000
    O606    O    0.64307   0.72098   0.33389   1.000
    O607    O    0.64077   0.22158   0.33399   1.000
    O608    O    0.97836   0.33390   0.29620   1.000
    O609    O    0.02599   0.33243   0.33621   1.000
    O610    O    0.78571   0.82796   0.29626   1.000
    O611    O    0.73942   0.82541   0.33630   1.000
    O612    O    0.93019   0.32668   0.33885   1.000
    O613    O    0.83658   0.82405   0.33899   1.000
    O614    O    0.47940   0.83332   0.29722   1.000
    O615    O    0.52734   0.83090   0.33699   1.000
    O616    O    0.78472   0.32790   0.29722   1.000
    O617    O    0.83580   0.32391   0.33937   1.000
    O618    O    0.47833   0.33414   0.29735   1.000
    O619    O    0.52591   0.33258   0.33760   1.000
    O620    O    0.97928   0.83385   0.29736   1.000
    O621    O    0.93093   0.82684   0.33951   1.000
    O622    O    0.28465   0.32858   0.29733   1.000
    O623    O    0.23858   0.32501   0.33752   1.000
    O624    O    0.73865   0.32462   0.33764   1.000
    O625    O    0.33564   0.32445   0.33973   1.000
    O626    O    0.43006   0.32703   0.33977   1.000
    O627    O    0.02645   0.83375   0.33800   1.000
    O628    O    0.28547   0.82789   0.29771   1.000
    O629    O    0.23940   0.82360   0.33772   1.000
    O630    O    0.43114   0.82607   0.33983   1.000
    O631    O    0.33661   0.82362   0.34004   1.000
    O632    O    0.31422   0.67640   0.35649   1.000
    O633    O    0.81275   0.17657   0.35681   1.000
    O634    O    0.31264   0.17696   0.35705   1.000
    O635    O    0.81438   0.67627   0.35712   1.000
    O636    O    0.92125   0.15793   0.36191   1.000
    O637    O    0.42271   0.65763   0.36234   1.000
    O638    O    0.92288   0.65806   0.36283   1.000
    O639    O    0.42114   0.15853   0.36282   1.000
    O640    O    0.12769   0.37498   0.37979   1.000
    O641    O    0.12924   0.87488   0.38052   1.000
    O642    O    0.62771   0.37493   0.38056   1.000
    O643    O    0.62817   0.87476   0.38045   1.000
    O644    O    0.13157   0.07722   0.37477   1.000
    O645    O    0.12950   0.03242   0.40657   1.000
    O646    O    0.12982   0.57746   0.37492   1.000
    O647    O    0.12709   0.53279   0.40668   1.000
    O648    O    0.63161   0.57697   0.37504   1.000
    O649    O    0.62910   0.53226   0.40683   1.000
    O650    O    0.13688   0.78090   0.38509   1.000
    O651    O    0.13782   0.28062   0.38495   1.000
    O652    O    0.63037   0.07725   0.37541   1.000
    O653    O    0.62790   0.03252   0.40719   1.000
    O654    O    0.63991   0.78002   0.38503   1.000
    O655    O    0.63763   0.28062   0.38525   1.000
    O656    O    0.13603   0.11899   0.40948   1.000
    O657    O    0.13401   0.61928   0.40971   1.000
    O658    O    0.63658   0.61861   0.40974   1.000
    O659    O    0.63451   0.11909   0.41017   1.000
    O660    O    0.08631   0.32925   0.38604   1.000
    O661    O    0.68047   0.82608   0.38609   1.000
    O662    O    0.58781   0.82791   0.38636   1.000
    O663    O    0.17947   0.32557   0.38670   1.000
    O664    O    0.18012   0.82454   0.38692   1.000
    O665    O    0.67950   0.32554   0.38696   1.000
    O666    O    0.58625   0.32931   0.38696   1.000
    O667    O    0.08655   0.83059   0.38721   1.000
    O668    O    0.88458   0.31911   0.38140   1.000
    O669    O    0.92958   0.31515   0.41382   1.000
    O670    O    0.88512   0.81950   0.38164   1.000
    O671    O    0.84268   0.81320   0.41418   1.000
    O672    O    0.84231   0.31269   0.41439   1.000
    O673    O    0.92993   0.81582   0.41463   1.000
    O674    O    0.38434   0.31951   0.38204   1.000
    O675    O    0.34197   0.31313   0.41472   1.000
    O676    O    0.42928   0.31548   0.41472   1.000
    O677    O    0.38544   0.81845   0.38214   1.000
    O678    O    0.43045   0.81418   0.41470   1.000
    O679    O    0.34312   0.81203   0.41496   1.000
    O680    O    0.63422   0.82940   0.46878   1.000
    O681    O    0.13267   0.32983   0.46875   1.000
    O682    O    0.63278   0.32994   0.46920   1.000
    O683    O    0.13357   0.82980   0.46922   1.000
    O684    O    0.29333   0.68032   0.42578   1.000
    O685    O    0.34091   0.67231   0.43168   1.000
    O686    O    0.79206   0.18053   0.42624   1.000
    O687    O    0.83966   0.17256   0.43182   1.000
    O688    O    0.29176   0.18087   0.42633   1.000
    O689    O    0.33935   0.17300   0.43220   1.000
    O690    O    0.79349   0.68017   0.42639   1.000
    O691    O    0.84109   0.67242   0.43226   1.000
    O692    O    0.94052   0.15564   0.43346   1.000
    O693    O    0.89299   0.16354   0.43430   1.000
    O694    O    0.44177   0.65529   0.43404   1.000
    O695    O    0.39424   0.66323   0.43453   1.000
    O696    O    0.44021   0.15635   0.43449   1.000
    O697    O    0.39268   0.16409   0.43501   1.000
    O698    O    0.94196   0.65590   0.43452   1.000
    O699    O    0.89442   0.66361   0.43505   1.000
    O700    O    0.86640   0.17013   0.53077   1.000
    O701    O    0.36723   0.67000   0.53079   1.000
    O702    O    0.36573   0.17055   0.53120   1.000
    O703    O    0.86732   0.67016   0.53122   1.000
    O704    O    0.10557   0.33637   0.56492   1.000
    O705    O    0.15890   0.32756   0.56771   1.000
    O706    O    0.60730   0.83587   0.56498   1.000
    O707    O    0.66063   0.82696   0.56777   1.000
    O708    O    0.60576   0.33672   0.56547   1.000
    O709    O    0.65909   0.32765   0.56832   1.000
    O710    O    0.10698   0.83638   0.56565   1.000
    O711    O    0.16031   0.82727   0.56815   1.000
    O712    O    0.05804   0.34408   0.56545   1.000
    O713    O    0.55977   0.84361   0.56552   1.000
    O714    O    0.55823   0.34466   0.56597   1.000
    O715    O    0.05945   0.84436   0.56651   1.000
    O716    O    0.65685   0.18794   0.58502   1.000
    O717    O    0.65805   0.68684   0.58524   1.000
    O718    O    0.07004   0.18418   0.58538   1.000
    O719    O    0.57074   0.68450   0.58527   1.000
    O720    O    0.56952   0.18578   0.58531   1.000
    O721    O    0.15777   0.68706   0.58562   1.000
    O722    O    0.15730   0.18676   0.58583   1.000
    O723    O    0.07045   0.68481   0.58613   1.000
    O724    O    0.20650   0.31981   0.57358   1.000
    O725    O    0.20791   0.81921   0.57375   1.000
    O726    O    0.70823   0.81909   0.57365   1.000
    O727    O    0.70667   0.31964   0.57424   1.000
    O728    O    0.36551   0.88079   0.58993   1.000
    O729    O    0.36342   0.38133   0.59023   1.000
    O730    O    0.86596   0.38071   0.59027   1.000
    O731    O    0.86394   0.88101   0.59052   1.000
    O732    O    0.37209   0.96736   0.59290   1.000
    O733    O    0.37095   0.46766   0.59313   1.000
    O734    O    0.87289   0.46720   0.59330   1.000
    O735    O    0.87049   0.96758   0.59343   1.000
    O736    O    0.07711   0.34192   0.63713   1.000
    O737    O    0.57885   0.84144   0.63719   1.000
    O738    O    0.57729   0.34234   0.63767   1.000
    O739    O    0.07872   0.84200   0.63806   1.000
    O740    O    0.18561   0.32371   0.64284   1.000
    O741    O    0.68735   0.82301   0.64293   1.000
    O742    O    0.18722   0.82317   0.64319   1.000
    O743    O    0.68578   0.32357   0.64352   1.000
    O744    O    0.91342   0.16941   0.61279   1.000
    O745    O    0.81986   0.17543   0.61309   1.000
    O746    O    0.86310   0.21908   0.61489   1.000
    O747    O    0.87075   0.12510   0.61948   1.000
    O748    O    0.41379   0.67059   0.61301   1.000
    O749    O    0.32051   0.67447   0.61308   1.000
    O750    O    0.36255   0.71927   0.61473   1.000
    O751    O    0.37227   0.62501   0.61945   1.000
    O752    O    0.82054   0.67442   0.61328   1.000
    O753    O    0.91368   0.67075   0.61386   1.000
    O754    O    0.86216   0.71938   0.61503   1.000
    O755    O    0.87231   0.62501   0.61976   1.000
    O756    O    0.41213   0.17206   0.61365   1.000
    O757    O    0.31949   0.17376   0.61389   1.000
    O758    O    0.36002   0.21992   0.61495   1.000
    O759    O    0.37181   0.12516   0.61956   1.000
    O760    O    0.61453   0.18151   0.61784   1.000
    O761    O    0.66336   0.17635   0.65995   1.000
    O762    O    0.56883   0.17389   0.66017   1.000
    O763    O    0.61568   0.68047   0.61795   1.000
    O764    O    0.56996   0.67296   0.66021   1.000
    O765    O    0.66437   0.67553   0.66026   1.000
    O766    O    0.11486   0.18048   0.61837   1.000
    O767    O    0.06904   0.17316   0.66047   1.000
    O768    O    0.11546   0.68070   0.61856   1.000
    O769    O    0.16426   0.67569   0.66059   1.000
    O770    O    0.16339   0.17590   0.66101   1.000
    O771    O    0.06983   0.67318   0.66107   1.000
    O772    O    0.97352   0.16625   0.66201   1.000
    O773    O    0.47412   0.66736   0.66233   1.000
    O774    O    0.26140   0.67510   0.66241   1.000
    O775    O    0.76057   0.17637   0.66231   1.000
    O776    O    0.76143   0.67497   0.66246   1.000
    O777    O    0.47262   0.16906   0.66303   1.000
    O778    O    0.97399   0.66756   0.66364   1.000
    O779    O    0.26057   0.17440   0.66369   1.000
    O780    O    0.36963   0.92263   0.62469   1.000
    O781    O    0.36679   0.87421   0.66614   1.000
    O782    O    0.36842   0.42296   0.62493   1.000
    O783    O    0.36563   0.37453   0.66640   1.000
    O784    O    0.87016   0.42253   0.62506   1.000
    O785    O    0.86695   0.37419   0.66648   1.000
    O786    O    0.86841   0.92277   0.62523   1.000
    O787    O    0.86606   0.87425   0.66669   1.000
    O788    O    0.35940   0.77828   0.66599   1.000
    O789    O    0.35689   0.27896   0.66609   1.000
    O790    O    0.85884   0.77836   0.66631   1.000
    O791    O    0.37387   0.96772   0.66925   1.000
    O792    O    0.85996   0.27816   0.66633   1.000
    O793    O    0.37369   0.46780   0.66795   1.000
    O794    O    0.87453   0.46757   0.66967   1.000
    O795    O    0.87318   0.96774   0.66975   1.000
    O796    O    0.37771   0.06383   0.67466   1.000
    O797    O    0.37792   0.56374   0.67483   1.000
    O798    O    0.87609   0.06389   0.67493   1.000
    O799    O    0.87796   0.56371   0.67506   1.000
    O800    O    0.05324   0.34602   0.70315   1.000
    O801    O    0.10290   0.33808   0.71350   1.000
    O802    O    0.55500   0.84556   0.70321   1.000
    O803    O    0.60464   0.83755   0.71355   1.000
    O804    O    0.55340   0.34646   0.70367   1.000
    O805    O    0.60305   0.33825   0.71407   1.000
    O806    O    0.05504   0.84614   0.70426   1.000
    O807    O    0.10471   0.83795   0.71431   1.000
    O808    O    0.20782   0.32038   0.71140   1.000
    O809    O    0.15806   0.32868   0.71643   1.000
    O810    O    0.70956   0.81959   0.71149   1.000
    O811    O    0.65980   0.82803   0.71649   1.000
    O812    O    0.20961   0.81962   0.71169   1.000
    O813    O    0.15987   0.82822   0.71694   1.000
    O814    O    0.70798   0.32001   0.71215   1.000
    O815    O    0.65821   0.32856   0.71707   1.000
    O816    O    0.71450   0.17209   0.70232   1.000
    O817    O    0.66653   0.16333   0.74433   1.000
    O818    O    0.52057   0.16663   0.70279   1.000
    O819    O    0.57200   0.16092   0.74457   1.000
    O820    O    0.52168   0.66585   0.70259   1.000
    O821    O    0.57296   0.66038   0.74477   1.000
    O822    O    0.02069   0.16615   0.70262   1.000
    O823    O    0.97415   0.16472   0.74279   1.000
    O824    O    0.76160   0.17280   0.74303   1.000
    O825    O    0.71537   0.67140   0.70266   1.000
    O826    O    0.66740   0.66287   0.74480   1.000
    O827    O    0.47543   0.66346   0.74305   1.000
    O828    O    0.21536   0.67151   0.70276   1.000
    O829    O    0.26241   0.67276   0.74320   1.000
    O830    O    0.07176   0.16119   0.74522   1.000
    O831    O    0.76237   0.67270   0.74325   1.000
    O832    O    0.16748   0.66296   0.74509   1.000
    O833    O    0.47459   0.16333   0.74353   1.000
    O834    O    0.02164   0.66600   0.70368   1.000
    O835    O    0.07302   0.66050   0.74559   1.000
    O836    O    0.21427   0.17195   0.70374   1.000
    O837    O    0.16616   0.16381   0.74572   1.000
    O838    O    0.97545   0.66347   0.74431   1.000
    O839    O    0.26110   0.17406   0.74443   1.000
    O840    O    0.36360   0.82332   0.70761   1.000
    O841    O    0.36009   0.77575   0.74675   1.000
    O842    O    0.36251   0.32362   0.70777   1.000
    O843    O    0.35965   0.27587   0.74681   1.000
    O844    O    0.86333   0.32339   0.70794   1.000
    O845    O    0.85856   0.27613   0.74703   1.000
    O846    O    0.86329   0.82328   0.70805   1.000
    O847    O    0.85997   0.77562   0.74708   1.000
    O848    O    0.36864   0.87080   0.75221   1.000
    O849    O    0.36859   0.37084   0.75241   1.000
    O850    O    0.86849   0.37082   0.75255   1.000
    O851    O    0.86888   0.87061   0.75271   1.000
    O852    O    0.37735   0.51557   0.71241   1.000
    O853    O    0.37648   0.46417   0.75400   1.000
    O854    O    0.37662   0.01570   0.71370   1.000
    O855    O    0.37557   0.96436   0.75533   1.000
    O856    O    0.87742   0.51551   0.71412   1.000
    O857    O    0.87603   0.46423   0.75575   1.000
    O858    O    0.87647   0.01561   0.71412   1.000
    O859    O    0.87593   0.96415   0.75579   1.000
    O860    O    0.37750   0.06135   0.75538   1.000
    O861    O    0.37925   0.56107   0.75556   1.000
    O862    O    0.87878   0.06112   0.75562   1.000
    O863    O    0.87919   0.56103   0.75578   1.000
    O864    O    0.12974   0.33328   0.79317   1.000
    O865    O    0.63140   0.83275   0.79322   1.000
    O866    O    0.62983   0.33317   0.79377   1.000
    O867    O    0.13161   0.83299   0.79382   1.000
    O868    O    0.91536   0.16538   0.79534   1.000
    O869    O    0.41653   0.66412   0.79545   1.000
    O870    O    0.82218   0.16937   0.79559   1.000
    O871    O    0.32296   0.66956   0.79558   1.000
    O872    O    0.82289   0.66952   0.79585   1.000
    O873    O    0.41599   0.16361   0.79591   1.000
    O874    O    0.91655   0.66403   0.79631   1.000
    O875    O    0.32192   0.17071   0.79639   1.000
    O876    O    0.62087   0.15551   0.78662   1.000
    O877    O    0.66606   0.15128   0.81898   1.000
    O878    O    0.57812   0.14956   0.81932   1.000
    O879    O    0.36467   0.71416   0.79720   1.000
    O880    O    0.36467   0.21412   0.79743   1.000
    O881    O    0.62170   0.65522   0.78705   1.000
    O882    O    0.66684   0.65115   0.81956   1.000
    O883    O    0.57888   0.64940   0.81963   1.000
    O884    O    0.86300   0.21456   0.79736   1.000
    O885    O    0.86471   0.71400   0.79757   1.000
    O886    O    0.12187   0.65529   0.78758   1.000
    O887    O    0.16708   0.65118   0.81985   1.000
    O888    O    0.12034   0.15642   0.78783   1.000
    O889    O    0.07742   0.15079   0.82030   1.000
    O890    O    0.07912   0.64944   0.82043   1.000
    O891    O    0.16537   0.15260   0.82062   1.000
    O892    O    0.37318   0.91586   0.79683   1.000
    O893    O    0.37077   0.87107   0.82858   1.000
    O894    O    0.37418   0.41564   0.79699   1.000
    O895    O    0.37176   0.37085   0.82874   1.000
    O896    O    0.87321   0.41582   0.79721   1.000
    O897    O    0.87034   0.37113   0.82892   1.000
    O898    O    0.37349   0.11998   0.80205   1.000
    O899    O    0.87474   0.11985   0.80194   1.000
    O900    O    0.87399   0.91555   0.79729   1.000
    O901    O    0.87187   0.87068   0.82905   1.000
    O902    O    0.37504   0.61976   0.80190   1.000
    O903    O    0.87496   0.61970   0.80226   1.000
    O904    O    0.37665   0.95812   0.83148   1.000
    O905    O    0.37849   0.45771   0.83162   1.000
    O906    O    0.87693   0.45801   0.83188   1.000
    O907    O    0.87796   0.95770   0.83192   1.000
    O908    O    0.37094   0.66738   0.88101   1.000
    O909    O    0.86989   0.16742   0.88105   1.000
    O910    O    0.37014   0.16740   0.88148   1.000
    O911    O    0.87082   0.66719   0.88150   1.000
    O912    O    0.10807   0.35411   0.86997   1.000
    O913    O    0.15012   0.31165   0.87293   1.000
    O914    O    0.60974   0.85382   0.86983   1.000
    O915    O    0.65144   0.81104   0.87316   1.000
    O916    O    0.60823   0.35404   0.87056   1.000
    O917    O    0.64995   0.31127   0.87354   1.000
    O918    O    0.11011   0.85409   0.87049   1.000
    O919    O    0.15166   0.81116   0.87367   1.000
    O920    O    0.57229   0.89241   0.87437   1.000
    O921    O    0.07030   0.39236   0.87486   1.000
    O922    O    0.07280   0.89280   0.87510   1.000
    O923    O    0.57074   0.39256   0.87542   1.000
    O924    O    0.18744   0.27290   0.88309   1.000
    O925    O    0.68696   0.27223   0.88375   1.000
    O926    O    0.68844   0.77202   0.88367   1.000
    O927    O    0.18854   0.77201   0.88408   1.000
    O928    O    0.58915   0.87435   0.94332   1.000
    O929    O    0.08757   0.37440   0.94369   1.000
    O930    O    0.08961   0.87463   0.94405   1.000
    O931    O    0.58780   0.37442   0.94426   1.000
    O932    O    0.16967   0.29056   0.94944   1.000
    O933    O    0.67057   0.78987   0.94985   1.000
    O934    O    0.66926   0.28996   0.95007   1.000
    O935    O    0.17074   0.78984   0.95030   1.000
    O936    O    0.36761   0.16950   0.70616   1.000
    O937    O    0.36861   0.66931   0.70579   1.000
    O938    O    0.86799   0.16938   0.70583   1.000
    O939    O    0.86858   0.66929   0.70617   1.000
    O940    O    0.13142   0.33070   0.29380   1.000
    O941    O    0.13199   0.83060   0.29417   1.000
    O942    O    0.63141   0.33059   0.29417   1.000
    O943    O    0.63235   0.83045   0.29382   1.000
loop_
    _geom_bond_atom_site_label_1
    _geom_bond_atom_site_label_2
    _geom_bond_distance
    _geom_bond_site_symmetry_2
    _ccdc_geom_bond_type
    C236   O432      0.74558      .   S
    C232   O432      0.74558      .   S
    C236   O433      0.64947  1_554   S
    C356   O433      0.64947      .   S
    C236   O434      0.51883  1_554   S
    C68    O434      0.51883      .   S
    C243   O435      0.69752      .   S
    C247   O435      0.69752      .   S
    C243   O436      0.66974  1_554   S
    C359   O436      0.66974      .   S
    C243   O437      0.53967  1_554   S
    C75    O437      0.53967      .   S
    C242   O438      0.69742      .   S
    C246   O438      0.69742      .   S
    C242   O439      0.67270  1_554   S
    C358   O439      0.67270      .   S
    C242   O440      0.54283  1_554   S
    C74    O440      0.54283      .   S
    C241   O441      0.69889      .   S
    C245   O441      0.69889      .   S
    C241   O442      0.67190  1_554   S
    C357   O442      0.67190      .   S
    C241   O443      0.54199  1_554   S
    C73    O443      0.54199      .   S
    C240   O444      0.70050      .   S
    C244   O444      0.70050      .   S
    C240   O445      0.67123  1_554   S
    C356   O445      0.67123      .   S
    C240   O446      0.54114  1_554   S
    C72    O446      0.54114      .   S
    C239   O447      0.74320      .   S
    C235   O447      0.74320      .   S
    C239   O448      0.65080  1_554   S
    C359   O448      0.65080      .   S
    C239   O449      0.51981  1_554   S
    C71    O449      0.51981      .   S
    C238   O450      0.74057      .   S
    C234   O450      0.74057      .   S
    C238   O451      0.65176  1_554   S
    C358   O451      0.65176      .   S
    C238   O452      0.52112  1_554   S
    C70    O452      0.52112      .   S
    C237   O453      0.73945      .   S
    C233   O453      0.73945      .   S
    C237   O454      0.65242  1_554   S
    C357   O454      0.65242      .   S
    C237   O455      0.52159  1_554   S
    C69    O455      0.52159      .   S
    C135   O456      0.54522      .   S
    C343   O456      0.54522  1_556   S
    C132   O457      0.54490      .   S
    C340   O457      0.54490  1_556   S
    C133   O458      0.54472      .   S
    C341   O458      0.54472  1_556   S
    C134   O459      0.54493      .   S
    C342   O459      0.54493  1_556   S
    C136   O460      0.54428      .   S
    C344   O460      0.54428  1_556   S
    C138   O461      0.54455      .   S
    C346   O461      0.54455  1_556   S
    C139   O462      0.54457      .   S
    C347   O462      0.54457  1_556   S
    C364   O463      1.03517      .   S
    C8     O463      1.03517      .   S
    C364   O464      0.67410      .   S
    C340   O464      0.67410  1_556   S
    C364   O465      0.67426      .   S
    C344   O465      0.67426  1_556   S
    C137   O466      0.54458      .   S
    C345   O466      0.54458  1_556   S
    C367   O467      1.03528      .   S
    C11    O467      1.03528      .   S
    C367   O468      0.67434      .   S
    C343   O468      0.67434  1_556   S
    C367   O469      0.67434      .   S
    C347   O469      0.67434  1_556   S
    C366   O470      1.03392      .   S
    C10    O470      1.03392      .   S
    C366   O471      0.67407      .   S
    C342   O471      0.67407  1_556   S
    C366   O472      0.67430      .   S
    C346   O472      0.67430  1_556   S
    C365   O473      1.03376      .   S
    C9     O473      1.03376      .   S
    C365   O474      0.67404      .   S
    C341   O474      0.67404  1_556   S
    C365   O475      0.67432      .   S
    C345   O475      0.67432  1_556   S
    C246   O476      0.54548      .   S
    C78    O476      0.54548      .   S
    C246   O477      0.70205      .   S
    C230   O477      0.70205      .   S
    C247   O478      0.54817      .   S
    C79    O478      0.54817      .   S
    C247   O479      0.70498      .   S
    C231   O479      0.70498      .   S
    C245   O480      0.54536      .   S
    C77    O480      0.54536      .   S
    C245   O481      0.70209      .   S
    C229   O481      0.70209      .   S
    C244   O482      0.54544      .   S
    C76    O482      0.54544      .   S
    C244   O483      0.70206      .   S
    C228   O483      0.70206      .   S
    C233   O484      0.54490      .   S
    C65    O484      0.54490      .   S
    C233   O485      0.70168      .   S
    C229   O485      0.70168      .   S
    C234   O486      0.54489      .   S
    C66    O486      0.54489      .   S
    C234   O487      0.70166      .   S
    C230   O487      0.70166      .   S
    C235   O488      0.54490      .   S
    C67    O488      0.54490      .   S
    C235   O489      0.70165      .   S
    C231   O489      0.70165      .   S
    C232   O490      0.54490      .   S
    C64    O490      0.54490      .   S
    C232   O491      0.70167      .   S
    C228   O491      0.70167      .   S
    C88    O492      0.54515      .   S
    C268   O492      0.54515      .   S
    C89    O493      0.54477      .   S
    C269   O493      0.54477      .   S
    C91    O494      0.54477      .   S
    C271   O494      0.54477      .   S
    C90    O495      0.54475      .   S
    C270   O495      0.54475      .   S
    C92    O496      0.54473      .   S
    C272   O496      0.54473      .   S
    C93    O497      0.54468      .   S
    C273   O497      0.54468      .   S
    C95    O498      0.54510      .   S
    C275   O498      0.54510      .   S
    C94    O499      0.54417      .   S
    C274   O499      0.54417      .   S
    C111   O500      0.54453      .   S
    C307   O500      0.54453      .   S
    C106   O501      0.54455      .   S
    C302   O501      0.54455      .   S
    C107   O502      0.54454      .   S
    C303   O502      0.54454      .   S
    C110   O503      0.54458      .   S
    C306   O503      0.54458      .   S
    C104   O504      0.54458      .   S
    C300   O504      0.54458      .   S
    C108   O505      0.54422      .   S
    C304   O505      0.54422      .   S
    C105   O506      0.54458      .   S
    C301   O506      0.54458      .   S
    C109   O507      0.54459      .   S
    C305   O507      0.54459      .   S
    C230   O508      0.73879      .   S
    C218   O508      0.73879      .   S
    C229   O509      0.73877      .   S
    C217   O509      0.73877      .   S
    C228   O510      0.73879      .   S
    C216   O510      0.73879      .   S
    C231   O511      0.73878      .   S
    C219   O511      0.73878      .   S
    C8     O512      1.03135      .   S
    C412   O512      1.03135      .   S
    C8     O513      1.03873      .   S
    C400   O513      1.03873      .   S
    C8     O514      1.03646      .   S
    C428   O514      1.03646      .   S
    C8     O515      1.04450      .   S
    C416   O515      1.04450      .   S
    C11    O516      1.03016      .   S
    C415   O516      1.03016      .   S
    C11    O517      1.03937      .   S
    C403   O517      1.03937      .   S
    C11    O518      1.05108      .   S
    C419   O518      1.05108      .   S
    C11    O519      1.03468      .   S
    C431   O519      1.03468      .   S
    C10    O520      1.03156      .   S
    C414   O520      1.03156      .   S
    C10    O521      1.04072      .   S
    C402   O521      1.04072      .   S
    C10    O522      1.04419      .   S
    C418   O522      1.04419      .   S
    C10    O523      1.03595      .   S
    C430   O523      1.03595      .   S
    C9     O524      1.03264      .   S
    C413   O524      1.03264      .   S
    C9     O525      1.04447      .   S
    C401   O525      1.04447      .   S
    C9     O526      1.04514      .   S
    C417   O526      1.04514      .   S
    C9     O527      1.03020      .   S
    C429   O527      1.03020      .   S
    C268   O528      0.69640      .   S
    C272   O528      0.69640      .   S
    C268   O529      0.70182      .   S
    C264   O529      0.70182      .   S
    C269   O530      0.69630      .   S
    C273   O530      0.69630      .   S
    C269   O531      0.70181      .   S
    C265   O531      0.70181      .   S
    C271   O532      0.69634      .   S
    C275   O532      0.69634      .   S
    C271   O533      0.70184      .   S
    C267   O533      0.70184      .   S
    C270   O534      0.69615      .   S
    C274   O534      0.69615      .   S
    C270   O535      0.70179      .   S
    C266   O535      0.70179      .   S
    C412   O536      0.63812      .   S
    C276   O536      0.63812      .   S
    C414   O537      0.63846      .   S
    C278   O537      0.63846      .   S
    C272   O538      0.70204      .   S
    C252   O538      0.70204      .   S
    C413   O539      0.63818      .   S
    C277   O539      0.63818      .   S
    C273   O540      0.70230      .   S
    C253   O540      0.70230      .   S
    C415   O541      0.63838      .   S
    C279   O541      0.63838      .   S
    C275   O542      0.70221      .   S
    C255   O542      0.70221      .   S
    C274   O543      0.70283      .   S
    C254   O543      0.70283      .   S
    C307   O544      0.69554      .   S
    C303   O544      0.69554      .   S
    C307   O545      0.70137      .   S
    C287   O545      0.70137      .   S
    C302   O546      0.69562      .   S
    C306   O546      0.69562      .   S
    C302   O547      0.70125      .   S
    C298   O547      0.70125      .   S
    C303   O548      0.70089      .   S
    C299   O548      0.70089      .   S
    C306   O549      0.70153      .   S
    C286   O549      0.70153      .   S
    C400   O550      0.63840      .   S
    C248   O550      0.63840      .   S
    C401   O551      0.63815      .   S
    C249   O551      0.63815      .   S
    C304   O552      0.69557      .   S
    C300   O552      0.69557      .   S
    C304   O553      0.70188      .   S
    C284   O553      0.70188      .   S
    C300   O554      0.70125      .   S
    C296   O554      0.70125      .   S
    C403   O555      0.63849      .   S
    C251   O555      0.63849      .   S
    C402   O556      0.63823      .   S
    C250   O556      0.63823      .   S
    C301   O557      0.69563      .   S
    C305   O557      0.69563      .   S
    C301   O558      0.70140      .   S
    C297   O558      0.70140      .   S
    C305   O559      0.70166      .   S
    C285   O559      0.70166      .   S
    C419   O560      0.63816      .   S
    C283   O560      0.63816      .   S
    C428   O561      0.63634      .   S
    C308   O561      0.63634      .   S
    C431   O562      0.63652      .   S
    C311   O562      0.63652      .   S
    C416   O563      0.63850      .   S
    C280   O563      0.63850      .   S
    C418   O564      0.63861      .   S
    C282   O564      0.63861      .   S
    C417   O565      0.63848      .   S
    C281   O565      0.63848      .   S
    C430   O566      0.63660      .   S
    C310   O566      0.63660      .   S
    C429   O567      0.63688      .   S
    C309   O567      0.63688      .   S
    C218   O568      0.70120      .   S
    C222   O568      0.70120      .   S
    C218   O569      0.70125      .   S
    C214   O569      0.70125      .   S
    C217   O570      0.70123      .   S
    C221   O570      0.70123      .   S
    C217   O571      0.70132      .   S
    C213   O571      0.70132      .   S
    C216   O572      0.70124      .   S
    C220   O572      0.70124      .   S
    C216   O573      0.70135      .   S
    C212   O573      0.70135      .   S
    C219   O574      0.70127      .   S
    C223   O574      0.70127      .   S
    C219   O575      0.70126      .   S
    C215   O575      0.70126      .   S
    C57    O576      0.54459      .   S
    C221   O576      0.54459      .   S
    C58    O577      0.54451      .   S
    C222   O577      0.54451      .   S
    C56    O578      0.54449      .   S
    C220   O578      0.54449      .   S
    C59    O579      0.54447      .   S
    C223   O579      0.54447      .   S
    C54    O580      0.54513      .   S
    C214   O580      0.54513      .   S
    C53    O581      0.54494      .   S
    C213   O581      0.54494      .   S
    C52    O582      0.54490      .   S
    C212   O582      0.54490      .   S
    C55    O583      0.54483      .   S
    C215   O583      0.54483      .   S
    C276   O584      0.75244      .   S
    C265   O584      0.75244      .   S
    C276   O585      0.63037      .   S
    C408   O585      0.63037      .   S
    C277   O586      0.75250      .   S
    C264   O586      0.75250  1_545   S
    C277   O587      0.63581      .   S
    C409   O587      0.63581      .   S
    C278   O588      0.75238      .   S
    C267   O588      0.75238      .   S
    C278   O589      0.63580      .   S
    C410   O589      0.63580      .   S
    C279   O590      0.75231      .   S
    C266   O590      0.75231  1_545   S
    C279   O591      0.63571      .   S
    C411   O591      0.63571      .   S
    C264   O592      0.70142      .   S
    C260   O592      0.70142      .   S
    C265   O593      0.70142      .   S
    C261   O593      0.70142      .   S
    C267   O594      0.70140      .   S
    C263   O594      0.70140      .   S
    C266   O595      0.70139      .   S
    C262   O595      0.70139      .   S
    C252   O596      0.75216      .   S
    C248   O596      0.75216      .   S
    C252   O597      0.70177      .   S
    C256   O597      0.70177      .   S
    C253   O598      0.75225      .   S
    C249   O598      0.75225      .   S
    C253   O599      0.70156      .   S
    C257   O599      0.70156      .   S
    C255   O600      0.75236      .   S
    C251   O600      0.75236      .   S
    C255   O601      0.70167      .   S
    C259   O601      0.70167      .   S
    C254   O602      0.75217      .   S
    C250   O602      0.75217      .   S
    C254   O603      0.70157      .   S
    C258   O603      0.70157      .   S
    C248   O604      0.63725      .   S
    C404   O604      0.63725      .   S
    C249   O605      0.63746      .   S
    C405   O605      0.63746      .   S
    C251   O606      0.63718      .   S
    C407   O606      0.63718      .   S
    C250   O607      0.63735      .   S
    C406   O607      0.63735      .   S
    C308   O608      0.75042  1_455   S
    C298   O608      0.75042      .   S
    C308   O609      0.63731      .   S
    C424   O609      0.63731      .   S
    C283   O610      0.74968      .   S
    C287   O610      0.74968      .   S
    C283   O611      0.63676      .   S
    C423   O611      0.63676      .   S
    C298   O612      0.70128      .   S
    C294   O612      0.70128      .   S
    C287   O613      0.70114      .   S
    C291   O613      0.70114      .   S
    C311   O614      0.75076      .   S
    C297   O614      0.75076      .   S
    C311   O615      0.63763      .   S
    C427   O615      0.63763      .   S
    C286   O616      0.74983      .   S
    C282   O616      0.74983      .   S
    C286   O617      0.70110      .   S
    C290   O617      0.70110      .   S
    C310   O618      0.75020      .   S
    C296   O618      0.75020      .   S
    C310   O619      0.63795      .   S
    C426   O619      0.63795      .   S
    C299   O620      0.74982      .   S
    C309   O620      0.74982  1_455   S
    C299   O621      0.70152      .   S
    C295   O621      0.70152      .   S
    C280   O622      0.74974      .   S
    C284   O622      0.74974      .   S
    C280   O623      0.63668      .   S
    C420   O623      0.63668      .   S
    C282   O624      0.63667      .   S
    C422   O624      0.63667      .   S
    C284   O625      0.70104      .   S
    C288   O625      0.70104      .   S
    C296   O626      0.70125      .   S
    C292   O626      0.70125      .   S
    C309   O627      0.63721      .   S
    C425   O627      0.63721      .   S
    C281   O628      0.75066      .   S
    C285   O628      0.75066      .   S
    C281   O629      0.63681      .   S
    C421   O629      0.63681      .   S
    C297   O630      0.70136      .   S
    C293   O630      0.70136      .   S
    C285   O631      0.70083      .   S
    C289   O631      0.70083      .   S
    C221   O632      0.69444      .   S
    C225   O632      0.69444      .   S
    C222   O633      0.69448      .   S
    C226   O633      0.69448      .   S
    C220   O634      0.69434      .   S
    C224   O634      0.69434      .   S
    C223   O635      0.69423      .   S
    C227   O635      0.69423      .   S
    C214   O636      0.69401      .   S
    C210   O636      0.69401      .   S
    C213   O637      0.69408      .   S
    C209   O637      0.69408      .   S
    C215   O638      0.69435      .   S
    C211   O638      0.69435      .   S
    C212   O639      0.69405      .   S
    C208   O639      0.69405      .   S
    C408   O640      1.04033      .   S
    C12    O640      1.04033      .   S
    C409   O641      1.03821      .   S
    C13    O641      1.03821      .   S
    C410   O642      1.03880      .   S
    C14    O642      1.03880      .   S
    C411   O643      1.04004      .   S
    C15    O643      1.04004      .   S
    C260   O644      0.69585      .   S
    C256   O644      0.69585      .   S
    C260   O645      0.54448      .   S
    C84    O645      0.54448      .   S
    C261   O646      0.69599      .   S
    C257   O646      0.69599      .   S
    C261   O647      0.54452      .   S
    C85    O647      0.54452      .   S
    C263   O648      0.69595      .   S
    C259   O648      0.69595      .   S
    C263   O649      0.54425      .   S
    C87    O649      0.54425      .   S
    C405   O650      1.04991      .   S
    C13    O650      1.04991      .   S
    C404   O651      1.05220      .   S
    C12    O651      1.05220      .   S
    C262   O652      0.69602      .   S
    C258   O652      0.69602      .   S
    C262   O653      0.54451      .   S
    C86    O653      0.54451      .   S
    C407   O654      1.05690      .   S
    C15    O654      1.05690      .   S
    C406   O655      1.05200      .   S
    C14    O655      1.05200      .   S
    C256   O656      0.54361      .   S
    C80    O656      0.54361      .   S
    C257   O657      0.54365      .   S
    C81    O657      0.54365      .   S
    C259   O658      0.54360      .   S
    C83    O658      0.54360      .   S
    C258   O659      0.54364      .   S
    C82    O659      0.54364      .   S
    C424   O660      1.03174      .   S
    C12    O660      1.03174      .   S
    C423   O661      1.02767      .   S
    C15    O661      1.02767      .   S
    C427   O662      1.03221      .   S
    C15    O662      1.03221      .   S
    C420   O663      1.03230      .   S
    C12    O663      1.03230      .   S
    C421   O664      1.03467      .   S
    C13    O664      1.03467      .   S
    C422   O665      1.03299      .   S
    C14    O665      1.03299      .   S
    C426   O666      1.03222      .   S
    C14    O666      1.03222      .   S
    C425   O667      1.03118      .   S
    C13    O667      1.03118      .   S
    C294   O668      0.69517      .   S
    C290   O668      0.69517      .   S
    C294   O669      0.54449      .   S
    C102   O669      0.54449      .   S
    C291   O670      0.69505      .   S
    C295   O670      0.69505      .   S
    C291   O671      0.54408      .   S
    C99    O671      0.54408      .   S
    C290   O672      0.54407      .   S
    C98    O672      0.54407      .   S
    C295   O673      0.54444      .   S
    C103   O673      0.54444      .   S
    C288   O674      0.69516      .   S
    C292   O674      0.69516      .   S
    C288   O675      0.54375      .   S
    C96    O675      0.54375      .   S
    C292   O676      0.54447      .   S
    C100   O676      0.54447      .   S
    C293   O677      0.69553      .   S
    C289   O677      0.69553      .   S
    C293   O678      0.54451      .   S
    C101   O678      0.54451      .   S
    C289   O679      0.54440      .   S
    C97    O679      0.54440      .   S
    C15    O680      1.03163      .   S
    C363   O680      1.03163      .   S
    C12    O681      1.03145      .   S
    C360   O681      1.03145      .   S
    C14    O682      1.03320      .   S
    C362   O682      1.03320      .   S
    C13    O683      1.03292      .   S
    C361   O683      1.03292      .   S
    C225   O684      0.54445      .   S
    C61    O684      0.54445      .   S
    C225   O685      0.67480      .   S
    C353   O685      0.67480      .   S
    C226   O686      0.54446      .   S
    C62    O686      0.54446      .   S
    C226   O687      0.67495      .   S
    C354   O687      0.67495      .   S
    C224   O688      0.54448      .   S
    C60    O688      0.54448      .   S
    C224   O689      0.67485      .   S
    C352   O689      0.67485      .   S
    C227   O690      0.54448      .   S
    C63    O690      0.54448      .   S
    C227   O691      0.67492      .   S
    C355   O691      0.67492      .   S
    C210   O692      0.54469      .   S
    C50    O692      0.54469      .   S
    C210   O693      0.67518      .   S
    C354   O693      0.67518      .   S
    C209   O694      0.54469      .   S
    C49    O694      0.54469      .   S
    C209   O695      0.67515      .   S
    C353   O695      0.67515      .   S
    C208   O696      0.54469      .   S
    C48    O696      0.54469      .   S
    C208   O697      0.67507      .   S
    C352   O697      0.67507      .   S
    C211   O698      0.54470      .   S
    C51    O698      0.54470      .   S
    C211   O699      0.67514      .   S
    C355   O699      0.67514      .   S
    C354   O700      1.03314      .   S
    C6     O700      1.03314      .   S
    C353   O701      1.03324      .   S
    C5     O701      1.03324      .   S
    C352   O702      1.03169      .   S
    C4     O702      1.03169      .   S
    C355   O703      1.03146      .   S
    C7     O703      1.03146      .   S
    C360   O704      0.67514      .   S
    C312   O704      0.67514      .   S
    C360   O705      0.67488      .   S
    C328   O705      0.67488      .   S
    C363   O706      0.67514      .   S
    C315   O706      0.67514      .   S
    C363   O707      0.67490      .   S
    C331   O707      0.67490      .   S
    C362   O708      0.67525      .   S
    C314   O708      0.67525      .   S
    C362   O709      0.67490      .   S
    C330   O709      0.67490      .   S
    C361   O710      0.67500      .   S
    C313   O710      0.67500      .   S
    C361   O711      0.67492      .   S
    C329   O711      0.67492      .   S
    C112   O712      0.54473      .   S
    C312   O712      0.54473      .   S
    C115   O713      0.54469      .   S
    C315   O713      0.54469      .   S
    C114   O714      0.54471      .   S
    C314   O714      0.54471      .   S
    C113   O715      0.54433      .   S
    C313   O715      0.54433      .   S
    C34    O716      0.54409      .   S
    C186   O716      0.54409      .   S
    C35    O717      0.54404      .   S
    C187   O717      0.54404      .   S
    C36    O718      0.54446      .   S
    C188   O718      0.54446      .   S
    C39    O719      0.54441      .   S
    C191   O719      0.54441      .   S
    C38    O720      0.54455      .   S
    C190   O720      0.54455      .   S
    C33    O721      0.54409      .   S
    C185   O721      0.54409      .   S
    C32    O722      0.54408      .   S
    C184   O722      0.54408      .   S
    C37    O723      0.54443      .   S
    C189   O723      0.54443      .   S
    C124   O724      0.54445      .   S
    C328   O724      0.54445      .   S
    C125   O725      0.54429      .   S
    C329   O725      0.54429      .   S
    C127   O726      0.54445      .   S
    C331   O726      0.54445      .   S
    C126   O727      0.54443      .   S
    C330   O727      0.54443      .   S
    C17    O728      0.54361      .   S
    C153   O728      0.54361      .   S
    C16    O729      0.54377      .   S
    C152   O729      0.54377      .   S
    C18    O730      0.54364      .   S
    C154   O730      0.54364      .   S
    C19    O731      0.54360      .   S
    C155   O731      0.54360      .   S
    C21    O732      0.54453      .   S
    C157   O732      0.54453      .   S
    C20    O733      0.54428      .   S
    C156   O733      0.54428      .   S
    C22    O734      0.54448      .   S
    C158   O734      0.54448      .   S
    C23    O735      0.54444      .   S
    C159   O735      0.54444      .   S
    C312   O736      0.69413      .   S
    C316   O736      0.69413      .   S
    C315   O737      0.69405      .   S
    C319   O737      0.69405      .   S
    C314   O738      0.69409      .   S
    C318   O738      0.69409      .   S
    C313   O739      0.69462      .   S
    C317   O739      0.69462      .   S
    C328   O740      0.69430      .   S
    C324   O740      0.69430      .   S
    C331   O741      0.69442      .   S
    C327   O741      0.69442      .   S
    C329   O742      0.69481      .   S
    C325   O742      0.69481      .   S
    C330   O743      0.69437      .   S
    C326   O743      0.69437      .   S
    C6     O744      1.03115      .   S
    C394   O744      1.03115      .   S
    C6     O745      1.03471      .   S
    C390   O745      1.03471      .   S
    C6     O746      1.04989      .   S
    C374   O746      1.04989      .   S
    C6     O747      1.03818      .   S
    C378   O747      1.03818      .   S
    C5     O748      1.03246      .   S
    C393   O748      1.03246      .   S
    C5     O749      1.03307      .   S
    C389   O749      1.03307      .   S
    C5     O750      1.05138      .   S
    C373   O750      1.05138      .   S
    C5     O751      1.03864      .   S
    C377   O751      1.03864      .   S
    C7     O752      1.03222      .   S
    C391   O752      1.03222      .   S
    C7     O753      1.03158      .   S
    C395   O753      1.03158      .   S
    C7     O754      1.05228      .   S
    C375   O754      1.05228      .   S
    C7     O755      1.03929      .   S
    C379   O755      1.03929      .   S
    C4     O756      1.03256      .   S
    C392   O756      1.03256      .   S
    C4     O757      1.02718      .   S
    C388   O757      1.02718      .   S
    C4     O758      1.05683      .   S
    C372   O758      1.05683      .   S
    C4     O759      1.04057      .   S
    C376   O759      1.04057      .   S
    C186   O760      0.69554      .   S
    C190   O760      0.69554      .   S
    C186   O761      0.70122      .   S
    C182   O761      0.70122      .   S
    C190   O762      0.70132      .   S
    C194   O762      0.70132      .   S
    C191   O763      0.69513      .   S
    C187   O763      0.69513      .   S
    C191   O764      0.70123      .   S
    C195   O764      0.70123      .   S
    C187   O765      0.70107      .   S
    C183   O765      0.70107      .   S
    C188   O766      0.69505      .   S
    C184   O766      0.69505      .   S
    C188   O767      0.70121      .   S
    C192   O767      0.70121      .   S
    C185   O768      0.69518      .   S
    C189   O768      0.69518      .   S
    C185   O769      0.70103      .   S
    C181   O769      0.70103      .   S
    C184   O770      0.70113      .   S
    C180   O770      0.70113      .   S
    C189   O771      0.70126      .   S
    C193   O771      0.70126      .   S
    C394   O772      0.63720      .   S
    C206   O772      0.63720      .   S
    C393   O773      0.63751      .   S
    C205   O773      0.63751      .   S
    C389   O774      0.63670      .   S
    C177   O774      0.63670      .   S
    C390   O775      0.63678      .   S
    C178   O775      0.63678      .   S
    C391   O776      0.63667      .   S
    C179   O776      0.63667      .   S
    C392   O777      0.63759      .   S
    C204   O777      0.63759      .   S
    C395   O778      0.63744      .   S
    C207   O778      0.63744      .   S
    C388   O779      0.63677      .   S
    C176   O779      0.63677      .   S
    C153   O780      0.69603      .   S
    C157   O780      0.69603      .   S
    C153   O781      0.70158      .   S
    C149   O781      0.70158      .   S
    C152   O782      0.69594      .   S
    C156   O782      0.69594      .   S
    C152   O783      0.70152      .   S
    C148   O783      0.70152      .   S
    C154   O784      0.69600      .   S
    C158   O784      0.69600      .   S
    C154   O785      0.70159      .   S
    C150   O785      0.70159      .   S
    C155   O786      0.69585      .   S
    C159   O786      0.69585      .   S
    C155   O787      0.70148      .   S
    C151   O787      0.70148      .   S
    C373   O788      0.63730      .   S
    C145   O788      0.63730      .   S
    C372   O789      0.63716      .   S
    C144   O789      0.63716      .   S
    C375   O790      0.63724      .   S
    C147   O790      0.63724      .   S
    C157   O791      0.70135      .   S
    C161   O791      0.70135      .   S
    C374   O792      0.63746      .   S
    C146   O792      0.63746      .   S
    C156   O793      0.68298      .   S
    C160   O793      0.68298      .   S
    C158   O794      0.70147      .   S
    C162   O794      0.70147      .   S
    C159   O795      0.70140      .   S
    C163   O795      0.70140      .   S
    C376   O796      0.63562      .   S
    C172   O796      0.63562      .   S
    C377   O797      0.63584      .   S
    C173   O797      0.63584      .   S
    C378   O798      0.63581      .   S
    C174   O798      0.63581      .   S
    C379   O799      0.63528      .   S
    C175   O799      0.63528      .   S
    C316   O800      0.54492      .   S
    C116   O800      0.54492      .   S
    C316   O801      0.70137      .   S
    C320   O801      0.70137      .   S
    C319   O802      0.54490      .   S
    C119   O802      0.54490      .   S
    C319   O803      0.70127      .   S
    C323   O803      0.70127      .   S
    C318   O804      0.54494      .   S
    C118   O804      0.54494      .   S
    C318   O805      0.70133      .   S
    C322   O805      0.70133      .   S
    C317   O806      0.54478      .   S
    C117   O806      0.54478      .   S
    C317   O807      0.70118      .   S
    C321   O807      0.70118      .   S
    C324   O808      0.54434      .   S
    C120   O808      0.54434      .   S
    C324   O809      0.70127      .   S
    C320   O809      0.70127      .   S
    C327   O810      0.54429      .   S
    C123   O810      0.54429      .   S
    C327   O811      0.70116      .   S
    C323   O811      0.70116      .   S
    C325   O812      0.54452      .   S
    C121   O812      0.54452      .   S
    C325   O813      0.70110      .   S
    C321   O813      0.70110      .   S
    C326   O814      0.54462      .   S
    C122   O814      0.54462      .   S
    C326   O815      0.70126      .   S
    C322   O815      0.70126      .   S
    C182   O816      0.75068      .   S
    C178   O816      0.75068      .   S
    C182   O817      0.70160      .   S
    C202   O817      0.70160      .   S
    C194   O818      0.75078      .   S
    C204   O818      0.75078      .   S
    C194   O819      0.70143      .   S
    C198   O819      0.70143      .   S
    C195   O820      0.75017      .   S
    C205   O820      0.75017      .   S
    C195   O821      0.70132      .   S
    C199   O821      0.70132      .   S
    C206   O822      0.74981  1_655   S
    C192   O822      0.74981      .   S
    C206   O823      0.63686      .   S
    C398   O823      0.63686      .   S
    C178   O824      0.63852      .   S
    C386   O824      0.63852      .   S
    C183   O825      0.74970      .   S
    C179   O825      0.74970      .   S
    C183   O826      0.70150      .   S
    C203   O826      0.70150      .   S
    C205   O827      0.63659      .   S
    C397   O827      0.63659      .   S
    C177   O828      0.74981      .   S
    C181   O828      0.74981      .   S
    C177   O829      0.63852      .   S
    C385   O829      0.63852      .   S
    C192   O830      0.70115      .   S
    C196   O830      0.70115      .   S
    C179   O831      0.63851      .   S
    C387   O831      0.63851      .   S
    C181   O832      0.70149      .   S
    C201   O832      0.70149      .   S
    C204   O833      0.63648      .   S
    C396   O833      0.63648      .   S
    C193   O834      0.75037      .   S
    C207   O834      0.75037  1_655   S
    C193   O835      0.70128      .   S
    C197   O835      0.70128      .   S
    C180   O836      0.74964      .   S
    C176   O836      0.74964      .   S
    C180   O837      0.70132      .   S
    C200   O837      0.70132      .   S
    C207   O838      0.63631      .   S
    C399   O838      0.63631      .   S
    C176   O839      0.63821      .   S
    C384   O839      0.63821      .   S
    C145   O840      0.75223      .   S
    C149   O840      0.75223      .   S
    C145   O841      0.63834      .   S
    C369   O841      0.63834      .   S
    C144   O842      0.75234      .   S
    C148   O842      0.75234      .   S
    C144   O843      0.63850      .   S
    C368   O843      0.63850      .   S
    C146   O844      0.75226      .   S
    C150   O844      0.75226      .   S
    C146   O845      0.63821      .   S
    C370   O845      0.63821      .   S
    C147   O846      0.75214      .   S
    C151   O846      0.75214      .   S
    C147   O847      0.63834      .   S
    C371   O847      0.63834      .   S
    C149   O848      0.70237      .   S
    C169   O848      0.70237      .   S
    C148   O849      0.70239      .   S
    C168   O849      0.70239      .   S
    C150   O850      0.70229      .   S
    C170   O850      0.70229      .   S
    C151   O851      0.70234      .   S
    C171   O851      0.70234      .   S
    C160   O852      0.75377      .   S
    C173   O852      0.75377      .   S
    C160   O853      0.71949      .   S
    C164   O853      0.71949      .   S
    C161   O854      0.75247  1_565   S
    C172   O854      0.75247      .   S
    C161   O855      0.70184      .   S
    C165   O855      0.70184      .   S
    C162   O856      0.75243      .   S
    C175   O856      0.75243      .   S
    C162   O857      0.70178      .   S
    C166   O857      0.70178      .   S
    C163   O858      0.75250  1_565   S
    C174   O858      0.75250      .   S
    C163   O859      0.70183      .   S
    C167   O859      0.70183      .   S
    C172   O860      0.63848      .   S
    C380   O860      0.63848      .   S
    C173   O861      0.63818      .   S
    C381   O861      0.63818      .   S
    C174   O862      0.63817      .   S
    C382   O862      0.63817      .   S
    C175   O863      0.63866      .   S
    C383   O863      0.63866      .   S
    C320   O864      0.73878      .   S
    C332   O864      0.73878      .   S
    C323   O865      0.73893      .   S
    C335   O865      0.73893      .   S
    C322   O866      0.73876      .   S
    C334   O866      0.73876      .   S
    C321   O867      0.73893      .   S
    C333   O867      0.73893      .   S
    C398   O868      1.03017      .   S
    C2     O868      1.03017      .   S
    C397   O869      1.03595      .   S
    C1     O869      1.03595      .   S
    C386   O870      1.04530      .   S
    C2     O870      1.04530      .   S
    C385   O871      1.04362      .   S
    C1     O871      1.04362      .   S
    C387   O872      1.04437      .   S
    C3     O872      1.04437      .   S
    C396   O873      1.03454      .   S
    C0     O873      1.03454      .   S
    C399   O874      1.03633      .   S
    C3     O874      1.03633      .   S
    C384   O875      1.05123      .   S
    C0     O875      1.05123      .   S
    C202   O876      0.69563      .   S
    C198   O876      0.69563      .   S
    C202   O877      0.54461      .   S
    C46    O877      0.54461      .   S
    C198   O878      0.54452      .   S
    C42    O878      0.54452      .   S
    C369   O879      1.04018      .   S
    C1     O879      1.04018      .   S
    C368   O880      1.03911      .   S
    C0     O880      1.03911      .   S
    C203   O881      0.69556      .   S
    C199   O881      0.69556      .   S
    C203   O882      0.54457      .   S
    C47    O882      0.54457      .   S
    C199   O883      0.54421      .   S
    C43    O883      0.54421      .   S
    C370   O884      1.04446      .   S
    C2     O884      1.04446      .   S
    C371   O885      1.03876      .   S
    C3     O885      1.03876      .   S
    C201   O886      0.69560      .   S
    C197   O886      0.69560      .   S
    C201   O887      0.54462      .   S
    C45    O887      0.54462      .   S
    C196   O888      0.69554      .   S
    C200   O888      0.69554      .   S
    C196   O889      0.54455      .   S
    C40    O889      0.54455      .   S
    C197   O890      0.54457      .   S
    C41    O890      0.54457      .   S
    C200   O891      0.54458      .   S
    C44    O891      0.54458      .   S
    C169   O892      0.69625      .   S
    C165   O892      0.69625      .   S
    C169   O893      0.54468      .   S
    C29    O893      0.54468      .   S
    C168   O894      0.69633      .   S
    C164   O894      0.69633      .   S
    C168   O895      0.54471      .   S
    C28    O895      0.54471      .   S
    C170   O896      0.69629      .   S
    C166   O896      0.69629      .   S
    C170   O897      0.54470      .   S
    C30    O897      0.54470      .   S
    C380   O898      1.03030      .   S
    C0     O898      1.03030      .   S
    C382   O899      1.03263      .   S
    C2     O899      1.03263      .   S
    C171   O900      0.69638      .   S
    C167   O900      0.69638      .   S
    C171   O901      0.54475      .   S
    C31    O901      0.54475      .   S
    C381   O902      1.03176      .   S
    C1     O902      1.03176      .   S
    C383   O903      1.03144      .   S
    C3     O903      1.03144      .   S
    C165   O904      0.54473      .   S
    C25    O904      0.54473      .   S
    C164   O905      0.54478      .   S
    C24    O905      0.54478      .   S
    C166   O906      0.54457      .   S
    C26    O906      0.54457      .   S
    C167   O907      0.54478      .   S
    C27    O907      0.54478      .   S
    C1     O908      1.03467      .   S
    C357   O908      1.03467      .   S
    C2     O909      1.03373      .   S
    C358   O909      1.03373      .   S
    C0     O910      1.03529      .   S
    C356   O910      1.03529      .   S
    C3     O911      1.03517      .   S
    C359   O911      1.03517      .   S
    C332   O912      0.70168      .   S
    C336   O912      0.70168      .   S
    C332   O913      0.70208      .   S
    C348   O913      0.70208      .   S
    C335   O914      0.70166      .   S
    C339   O914      0.70166      .   S
    C335   O915      0.70203      .   S
    C351   O915      0.70203      .   S
    C334   O916      0.70170      .   S
    C338   O916      0.70170      .   S
    C334   O917      0.70208      .   S
    C350   O917      0.70208      .   S
    C333   O918      0.70167      .   S
    C337   O918      0.70167      .   S
    C333   O919      0.70172      .   S
    C349   O919      0.70172      .   S
    C131   O920      0.54491      .   S
    C339   O920      0.54491      .   S
    C128   O921      0.54491      .   S
    C336   O921      0.54491      .   S
    C129   O922      0.54490      .   S
    C337   O922      0.54490      .   S
    C130   O923      0.54491      .   S
    C338   O923      0.54491      .   S
    C140   O924      0.54565      .   S
    C348   O924      0.54565      .   S
    C142   O925      0.54535      .   S
    C350   O925      0.54535      .   S
    C143   O926      0.54543      .   S
    C351   O926      0.54543      .   S
    C141   O927      0.54516      .   S
    C349   O927      0.54516      .   S
    C339   O928      0.69432      .   S
    C343   O928      0.69432      .   S
    C336   O929      0.69489      .   S
    C340   O929      0.69489      .   S
    C337   O930      0.69473      .   S
    C341   O930      0.69473      .   S
    C338   O931      0.69480      .   S
    C342   O931      0.69480      .   S
    C348   O932      0.69422      .   S
    C344   O932      0.69422      .   S
    C351   O933      0.69432      .   S
    C347   O933      0.69432      .   S
    C350   O934      0.69424      .   S
    C346   O934      0.69424      .   S
    C349   O935      0.69490      .   S
    C345   O935      0.69490      .   S
    C0     O936      1.43061      .   S
    C4     O936      1.43061      .   S
    C1     O937      1.42989      .   S
    C5     O937      1.42989      .   S
    C2     O938      1.43066      .   S
    C6     O938      1.43066      .   S
    C3     O939      1.43081      .   S
    C7     O939      1.43081      .   S
    C8     O940      1.43081      .   S
    C12    O940      1.43081      .   S
    C9     O941      1.43052      .   S
    C13    O941      1.43052      .   S
    C10    O942      1.43046      .   S
    C14    O942      1.43046      .   S
    C11    O943      1.43060      .   S
    C15    O943      1.43060      .   S
