# CIF file generated by openbabel 2.4.90, see http://openbabel.sf.net
data_I
_chemical_name_common ''
_cell_length_a 12.19
_cell_length_b 12.328
_cell_length_c 14.117
_cell_angle_alpha 89.884
_cell_angle_beta 68.561
_cell_angle_gamma 89.961
_space_group_name_H-M_alt 'P 1'
_space_group_name_Hall 'P 1'
loop_
    _symmetry_equiv_pos_as_xyz
    x,y,z
loop_
    _atom_site_label
    _atom_site_type_symbol
    _atom_site_fract_x
    _atom_site_fract_y
    _atom_site_fract_z
    _atom_site_occupancy
    Zr0     Zr   0.42469   0.57978   0.89341   1.000
    Zr1     Zr   0.57473   0.08010   0.60641   1.000
    Zr2     Zr   0.57532   0.42016   0.10657   1.000
    Zr3     Zr   0.42528   0.91984   0.39358   1.000
    N4      N    0.06029   0.27416   0.83952   1.000
    O5      O    0.25214   0.38101   0.84674   1.000
    O6      O    0.81158   0.21864   0.75369   1.000
    N7      N    0.94028   0.72579   0.15789   1.000
    O8      O    0.74815   0.61894   0.15196   1.000
    O9      O    0.18871   0.78130   0.24501   1.000
    N10     N    0.06050   0.22511   0.33846   1.000
    O11     O    0.25244   0.11814   0.34580   1.000
    O12     O    0.81185   0.28089   0.25307   1.000
    N13     N    0.94007   0.77483   0.66152   1.000
    O14     O    0.18843   0.71906   0.74692   1.000
    O15     O    0.74785   0.88180   0.65418   1.000
    O16     O    0.73165   0.81481   0.27188   1.000
    O17     O    0.21403   0.13089   0.65406   1.000
    O18     O    0.78623   0.63035   0.84618   1.000
    O19     O    0.26885   0.31512   0.22659   1.000
    O20     O    0.15677   0.82795   0.54930   1.000
    O21     O    0.73144   0.68482   0.77339   1.000
    O22     O    0.78626   0.86906   0.34463   1.000
    O23     O    0.26864   0.18513   0.72681   1.000
    O24     O    0.21406   0.36959   0.15380   1.000
    O25     O    0.14893   0.66386   0.02970   1.000
    O26     O    0.84353   0.17199   0.45069   1.000
    O27     O    0.84347   0.32712   0.95174   1.000
loop_
    _geom_bond_atom_site_label_1
    _geom_bond_atom_site_label_2
    _geom_bond_distance
    _geom_bond_site_symmetry_2
    _ccdc_geom_bond_type
    N4     O5        2.71918      .   S
    Zr0    O5        3.44812      .   S
    N4     O6        3.71743  1_455   S
    Zr1    O6        4.47052      .   S
    N7     O8        2.71574      .   S
    Zr2    O8        3.44304      .   S
    N7     O9        3.72565  1_655   S
    Zr3    O9        4.48051      .   S
    N10    O11       2.71971      .   S
    Zr3    O11       3.44899  1_565   S
    N10    O12       3.71191  1_455   S
    Zr2    O12       4.45833      .   S
    N13    O14       3.70872  1_655   S
    Zr0    O14       4.45551      .   S
    N13    O15       2.72261      .   S
    Zr1    O15       3.45126  1_545   S
    Zr3    O16       3.72662      .   S
    N7     O16       2.69687      .   S
    Zr3    O17       4.47554  1_565   S
    N4     O17       3.14859      .   S
    Zr2    O18       4.46082  1_554   S
    N13    O18       3.14585      .   S
    Zr2    O19       3.72489      .   S
    N10    O19       2.69080      .   S
    N13    O20       2.61832  1_655   S
    Zr3    O20       3.40061      .   S
    N13    O21       2.69324      .   S
    Zr0    O21       3.72772      .   S
    Zr1    O22       4.48755  1_545   S
    N7     O22       3.16071      .   S
    Zr1    O23       3.72214      .   S
    N4     O23       2.68995      .   S
    Zr0    O24       4.45995  1_556   S
    N10    O24       3.14488      .   S
    N7     O25       2.63919  1_655   S
    Zr0    O25       3.36928  1_556   S
    N10    O26       2.62099  1_455   S
    Zr1    O26       3.40314      .   S
    N4     O27       2.61971  1_455   S
    Zr2    O27       3.39992  1_554   S
