# CIF file generated by openbabel 2.4.90, see http://openbabel.sf.net
data_I
_chemical_name_common ''
_cell_length_a 12.19
_cell_length_b 12.328
_cell_length_c 14.117
_cell_angle_alpha 89.884
_cell_angle_beta 68.561
_cell_angle_gamma 89.961
_space_group_name_H-M_alt 'P 1'
_space_group_name_Hall 'P 1'
loop_
    _symmetry_equiv_pos_as_xyz
    x,y,z
loop_
    _atom_site_label
    _atom_site_type_symbol
    _atom_site_fract_x
    _atom_site_fract_y
    _atom_site_fract_z
    _atom_site_occupancy
    Zr0     Zr   0.42469   0.57978   0.89341   1.000
    Zr1     Zr   0.57473   0.08010   0.60641   1.000
    Zr2     Zr   0.57532   0.42016   0.10657   1.000
    Zr3     Zr   0.42528   0.91984   0.39358   1.000
    N4      N    0.06029   0.27416   0.83952   1.000
    O5      O    0.26497   0.20509   0.74359   1.000
    O6      O    0.19311   0.13666   0.65130   1.000
    O7      O    0.25214   0.38101   0.84674   1.000
    O8      O    0.85566   0.35104   0.99116   1.000
    O9      O    0.87006   0.32710   0.94727   1.000
    O10     O    0.82407   0.31518   0.93427   1.000
    O11     O    0.81158   0.21864   0.75369   1.000
    O12     O    0.23494   0.12512   0.65682   1.000
    O13     O    0.27231   0.16518   0.71003   1.000
    N14     N    0.94028   0.72579   0.15789   1.000
    O15     O    0.17622   0.68477   0.05230   1.000
    O16     O    0.13023   0.67285   0.05142   1.000
    O17     O    0.80718   0.86329   0.34739   1.000
    O18     O    0.14463   0.64892   0.00753   1.000
    O19     O    0.76535   0.87483   0.34187   1.000
    O20     O    0.72798   0.83477   0.28866   1.000
    O21     O    0.74815   0.61894   0.15196   1.000
    O22     O    0.18871   0.78130   0.24501   1.000
    O23     O    0.73532   0.79486   0.25510   1.000
    N24     N    0.06050   0.22511   0.33846   1.000
    O25     O    0.19328   0.36388   0.15082   1.000
    O26     O    0.85553   0.14873   0.49050   1.000
    O27     O    0.26522   0.29484   0.24310   1.000
    O28     O    0.25244   0.11814   0.34580   1.000
    O29     O    0.82422   0.18363   0.43302   1.000
    O30     O    0.81185   0.28089   0.25307   1.000
    O31     O    0.87012   0.17197   0.44622   1.000
    O32     O    0.23483   0.37530   0.15679   1.000
    O33     O    0.27249   0.33540   0.21008   1.000
    N34     N    0.94007   0.77483   0.66152   1.000
    O35     O    0.14475   0.85122   0.50949   1.000
    O36     O    0.76546   0.62464   0.84319   1.000
    O37     O    0.72781   0.66454   0.78990   1.000
    O38     O    0.80701   0.63607   0.84916   1.000
    O39     O    0.17607   0.81631   0.56697   1.000
    O40     O    0.73508   0.70511   0.75687   1.000
    O41     O    0.18843   0.71906   0.74692   1.000
    O42     O    0.13017   0.82796   0.55376   1.000
    O43     O    0.74785   0.88180   0.65418   1.000
loop_
    _geom_bond_atom_site_label_1
    _geom_bond_atom_site_label_2
    _geom_bond_distance
    _geom_bond_site_symmetry_2
    _ccdc_geom_bond_type
    N4     O5        2.51317      .   S
    Zr1    O5        3.87834      .   S
    N4     O6        3.06990      .   S
    Zr3    O6        4.57096  1_565   S
    N4     O7        2.71918      .   S
    Zr0    O7        3.44812      .   S
    N4     O8        2.79362  1_455   S
    Zr2    O8        3.31521  1_554   S
    N4     O9        2.35381  1_455   S
    Zr2    O9        3.65794  1_554   S
    N4     O10       2.74255  1_455   S
    Zr2    O10       3.37661  1_554   S
    N4     O11       3.71743  1_455   S
    Zr1    O11       4.47052      .   S
    N4     O12       3.24971      .   S
    Zr3    O12       4.39600  1_565   S
    N4     O13       2.89445      .   S
    Zr1    O13       3.59018      .   S
    N14    O15       2.75992  1_655   S
    Zr0    O15       3.30465  1_556   S
    N14    O16       2.34619  1_655   S
    Zr0    O16       3.65083  1_556   S
    N14    O17       3.08287      .   S
    Zr1    O17       4.58234  1_545   S
    N14    O18       2.78367  1_655   S
    Zr0    O18       3.31036  1_556   S
    N14    O19       3.26094      .   S
    Zr1    O19       4.40862  1_545   S
    N14    O20       2.90218      .   S
    Zr3    O20       3.59376      .   S
    N14    O21       2.71574      .   S
    Zr2    O21       3.44304      .   S
    N14    O22       3.72565  1_655   S
    Zr3    O22       4.48051      .   S
    N14    O23       2.51907      .   S
    Zr3    O23       3.88361      .   S
    N24    O25       3.06825      .   S
    Zr0    O25       4.55244  1_556   S
    N24    O26       2.79483  1_455   S
    Zr1    O26       3.31874      .   S
    N24    O27       2.51413      .   S
    Zr2    O27       3.88090      .   S
    N24    O28       2.71971      .   S
    Zr3    O28       3.44899  1_565   S
    N24    O29       2.74369  1_455   S
    Zr1    O29       3.37945      .   S
    N24    O30       3.71191  1_455   S
    Zr2    O30       4.45833      .   S
    N24    O31       2.35512  1_455   S
    Zr1    O31       3.66126      .   S
    N24    O32       3.24403      .   S
    Zr0    O32       4.38348  1_556   S
    N24    O33       2.89517      .   S
    Zr2    O33       3.59308      .   S
    N34    O35       2.79268  1_655   S
    Zr3    O35       3.31587      .   S
    N34    O36       3.24523      .   S
    Zr2    O36       4.38419  1_554   S
    N34    O37       2.89738      .   S
    Zr0    O37       3.59607      .   S
    N34    O38       3.06898      .   S
    Zr2    O38       4.55348  1_554   S
    N34    O39       2.74078  1_655   S
    Zr3    O39       3.37719      .   S
    N34    O40       2.51681      .   S
    Zr0    O40       3.88357      .   S
    N34    O41       3.70872  1_655   S
    Zr0    O41       4.45551      .   S
    N34    O42       2.35256  1_655   S
    Zr3    O42       3.65866      .   S
    N34    O43       2.72261      .   S
    Zr1    O43       3.45126  1_545   S
