# CIF file generated by openbabel 2.4.90, see http://openbabel.sf.net
data_I
_chemical_name_common 'Ba(CO2)2'
_cell_length_a 6.315
_cell_length_b 8.7495
_cell_length_c 9.775
_cell_angle_alpha 64.711
_cell_angle_beta 84.48
_cell_angle_gamma 83.627
_space_group_name_H-M_alt 'P 1'
_space_group_name_Hall 'P 1'
loop_
    _symmetry_equiv_pos_as_xyz
    x,y,z
loop_
    _atom_site_label
    _atom_site_type_symbol
    _atom_site_fract_x
    _atom_site_fract_y
    _atom_site_fract_z
    _atom_site_occupancy
    Ba0     Ba   0.71954   0.97501   0.19902   1.000
    Ba1     Ba   0.78633   0.36134   0.43386   1.000
    Ba2     Ba   0.28054   0.02508   0.80109   1.000
    Ba3     Ba   0.21363   0.63859   0.56625   1.000
    C4      C    0.18265   0.08922   0.32728   1.000
    C5      C    0.32534   0.18162   0.38329   1.000
    C6      C    0.14118   0.71988   0.18596   1.000
    C7      C    0.38885   0.71445   0.18852   1.000
    C8      C    0.81731   0.91058   0.67286   1.000
    C9      C    0.67457   0.81819   0.61688   1.000
    C10     C    0.85886   0.28010   0.81411   1.000
    C11     C    0.61117   0.28552   0.81165   1.000
    O12     O    0.98907   0.14553   0.30580   1.000
    O13     O    0.26910   0.95835   0.31200   1.000
    O14     O    0.23894   0.23507   0.47929   1.000
    O15     O    0.51881   0.19331   0.33301   1.000
    O16     O    0.03710   0.64012   0.31143   1.000
    O17     O    0.05641   0.81228   0.06270   1.000
    O18     O    0.47335   0.62989   0.31583   1.000
    O19     O    0.48839   0.80424   0.06693   1.000
    O20     O    0.01094   0.85466   0.69414   1.000
    O21     O    0.73094   0.04143   0.68818   1.000
    O22     O    0.76091   0.76476   0.52085   1.000
    O23     O    0.48112   0.80651   0.66721   1.000
    O24     O    0.96288   0.35984   0.68860   1.000
    O25     O    0.94367   0.18770   0.93735   1.000
    O26     O    0.52659   0.36976   0.68432   1.000
    O27     O    0.51165   0.19602   0.93337   1.000
loop_
    _geom_bond_atom_site_label_1
    _geom_bond_atom_site_label_2
    _geom_bond_distance
    _geom_bond_site_symmetry_2
    _ccdc_geom_bond_type
    O17    C6        1.26002      .   S
    O17    Ba2       2.79823  1_564   S
    O19    C7        1.26224      .   S
    O19    Ba2       2.83060  1_564   S
    C6     C7        1.56179      .   S
    C6     O16       1.28013      .   S
    C7     O18       1.27835      .   S
    Ba0    O27       2.82988  1_564   S
    Ba0    O25       2.79829  1_564   S
    O12    C4        1.26825  1_655   S
    O16    Ba1       2.80864  1_455   S
    O13    C4        1.27398  1_565   S
    O18    Ba1       2.80183      .   S
    C4     C5        1.54926      .   S
    O15    C5        1.27044      .   S
    C5     O14       1.27150      .   S
    O22    C9        1.27154      .   S
    Ba3    O26       2.80317      .   S
    Ba3    O24       2.80835  1_455   S
    C9     O23       1.27040      .   S
    C9     C8        1.54916      .   S
    C8     O21       1.27390  1_565   S
    C8     O20       1.26767  1_655   S
    O26    C11       1.27842      .   S
    O24    C10       1.28014      .   S
    C11    C10       1.56180      .   S
    C11    O27       1.26220      .   S
    C10    O25       1.26001      .   S
    O12    Ba0       2.90663  1_545   S
    O12    Ba1       2.81883      .   S
    O13    Ba0       2.94663      .   S
    O13    Ba3       2.86990      .   S
    O14    Ba1       2.95148  1_455   S
    O14    Ba2       2.90752      .   S
    O15    Ba0       2.87244  1_545   S
    O15    Ba1       2.84553      .   S
    O16    Ba0       3.19111  1_455   S
    O16    Ba3       2.81953      .   S
    O17    Ba0       2.95491  1_455   S
    O18    Ba0       3.25481      .   S
    O18    Ba3       2.83666      .   S
    O19    Ba0       2.91985      .   S
    O20    Ba2       2.90728  1_565   S
    O20    Ba3       2.81955      .   S
    O21    Ba1       2.87094      .   S
    O21    Ba2       2.94622      .   S
    O22    Ba0       2.90793      .   S
    O22    Ba3       2.95197  1_655   S
    O23    Ba2       2.87330  1_565   S
    O23    Ba3       2.84540      .   S
    O24    Ba1       2.81909      .   S
    O24    Ba2       3.19070  1_655   S
    O25    Ba2       2.95403  1_655   S
    O26    Ba1       2.83632      .   S
    O26    Ba2       3.25125      .   S
    O27    Ba2       2.92218      .   S
