# CIF file generated by openbabel 2.4.90, see http://openbabel.sf.net
data_I
_chemical_name_common ''
_cell_length_a 13.501
_cell_length_b 14.422
_cell_length_c 15.353
_cell_angle_alpha 89.961
_cell_angle_beta 90.056
_cell_angle_gamma 88.507
_space_group_name_H-M_alt 'P 1'
_space_group_name_Hall 'P 1'
loop_
    _symmetry_equiv_pos_as_xyz
    x,y,z
loop_
    _atom_site_label
    _atom_site_type_symbol
    _atom_site_fract_x
    _atom_site_fract_y
    _atom_site_fract_z
    _atom_site_occupancy
    H0      H    0.53946   0.69602   0.26539   1.000
    H1      H    0.78359   0.51708   0.18656   1.000
    H2      H    0.70797   0.76165   0.03655   1.000
    H3      H    0.96119   0.30389   0.76564   1.000
    H4      H    0.71688   0.48275   0.68636   1.000
    H5      H    0.79211   0.23798   0.53697   1.000
    H6      H    0.45966   0.19810   0.23067   1.000
    H7      H    0.22057   0.02636   0.31282   1.000
    H8      H    0.29502   0.26724   0.46282   1.000
    H9      H    0.04058   0.80079   0.73043   1.000
    H10     H    0.27972   0.97307   0.81170   1.000
    H11     H    0.20558   0.73289   0.96304   1.000
    C12     C    0.61745   0.73816   0.14995   1.000
    C13     C    0.60031   0.67992   0.22105   1.000
    C14     C    0.66052   0.60073   0.23465   1.000
    C15     C    0.73757   0.57925   0.17653   1.000
    C16     C    0.75449   0.63706   0.10506   1.000
    C17     C    0.69492   0.71690   0.09220   1.000
    C18     C    0.88293   0.26157   0.65031   1.000
    C19     C    0.90022   0.31992   0.72128   1.000
    C20     C    0.84000   0.39912   0.73469   1.000
    C21     C    0.76285   0.42054   0.67651   1.000
    C22     C    0.74583   0.36268   0.60515   1.000
    C23     C    0.80533   0.28279   0.59254   1.000
    C24     C    0.38324   0.24201   0.34751   1.000
    C25     C    0.39998   0.18365   0.27586   1.000
    C26     C    0.34078   0.10656   0.26278   1.000
    C27     C    0.26563   0.08700   0.32230   1.000
    C28     C    0.24963   0.14449   0.39472   1.000
    C29     C    0.30768   0.22260   0.40662   1.000
    C30     C    0.11724   0.75746   0.84751   1.000
    C31     C    0.10034   0.81545   0.77555   1.000
    C32     C    0.15950   0.89246   0.76201   1.000
    C33     C    0.23470   0.91245   0.82155   1.000
    C34     C    0.25070   0.85541   0.89437   1.000
    C35     C    0.19280   0.77725   0.90659   1.000
loop_
    _geom_bond_atom_site_label_1
    _geom_bond_atom_site_label_2
    _geom_bond_distance
    _geom_bond_site_symmetry_2
    _ccdc_geom_bond_type
    H2     C17       1.08765      .   S
    C17    C16       1.40104      .   S
    C17    C12       1.39977      .   S
    C16    C15       1.40017      .   S
    C12    C13       1.40006      .   S
    C15    H1        1.08821      .   S
    C15    C14       1.39999      .   S
    C13    C14       1.39981      .   S
    C13    H0        1.08793      .   S
    H6     C25       1.08791      .   S
    C26    C25       1.40052      .   S
    C26    C27       1.40018      .   S
    C25    C24       1.40050      .   S
    H7     C27       1.08803      .   S
    C27    C28       1.40097      .   S
    C24    C29       1.39964      .   S
    C28    C29       1.40095      .   S
    C29    H8        1.08796      .   S
    H5     C23       1.08798      .   S
    C23    C22       1.40095      .   S
    C23    C18       1.39967      .   S
    C22    C21       1.40013      .   S
    C18    C19       1.40030      .   S
    C21    H4        1.08816      .   S
    C21    C20       1.39979      .   S
    C19    C20       1.40009      .   S
    C19    H3        1.08791      .   S
    H9     C31       1.08790      .   S
    C32    C31       1.40034      .   S
    C32    C33       1.40116      .   S
    C31    C30       1.40017      .   S
    H10    C33       1.08824      .   S
    C33    C34       1.40078      .   S
    C30    C35       1.39950      .   S
    C34    C35       1.40102      .   S
    C35    H11       1.08790      .   S
