# CIF file generated by openbabel 2.4.90, see http://openbabel.sf.net
data_I
_chemical_name_common ''
_cell_length_a 13.501
_cell_length_b 14.422
_cell_length_c 15.353
_cell_angle_alpha 89.961
_cell_angle_beta 90.056
_cell_angle_gamma 88.507
_space_group_name_H-M_alt 'P 1'
_space_group_name_Hall 'P 1'
loop_
    _symmetry_equiv_pos_as_xyz
    x,y,z
loop_
    _atom_site_label
    _atom_site_type_symbol
    _atom_site_fract_x
    _atom_site_fract_y
    _atom_site_fract_z
    _atom_site_occupancy
    C0      C    0.55007   0.81984   0.13424   1.000
    C1      C    0.64089   0.53689   0.30870   1.000
    C2      C    0.83278   0.61293   0.04064   1.000
    C3      C    0.95031   0.17990   0.63460   1.000
    C4      C    0.85955   0.46301   0.80869   1.000
    C5      C    0.66745   0.38685   0.54060   1.000
    C6      C    0.44932   0.32158   0.36260   1.000
    C7      C    0.35954   0.04281   0.18785   1.000
    C8      C    0.17422   0.12178   0.46141   1.000
    C9      C    0.05126   0.67788   0.86284   1.000
    C10     C    0.14049   0.95549   0.68656   1.000
    C11     C    0.32612   0.87843   0.96109   1.000
