# CIF file generated by openbabel 2.4.90, see http://openbabel.sf.net
data_I
_chemical_name_common ''
_cell_length_a 13.501
_cell_length_b 14.422
_cell_length_c 15.353
_cell_angle_alpha 89.961
_cell_angle_beta 90.056
_cell_angle_gamma 88.507
_space_group_name_H-M_alt 'P 1'
_space_group_name_Hall 'P 1'
loop_
    _symmetry_equiv_pos_as_xyz
    x,y,z
loop_
    _atom_site_label
    _atom_site_type_symbol
    _atom_site_fract_x
    _atom_site_fract_y
    _atom_site_fract_z
    _atom_site_occupancy
    N0      N    0.67737   0.65853   0.16310   1.000
    N1      N    0.32469   0.16422   0.33512   1.000
    N2      N    0.17568   0.83525   0.83475   1.000
    N3      N    0.82304   0.34125   0.66327   1.000
    Zr4     Zr   0.08994   0.08526   0.59493   1.000
    O5      O    0.97988   0.18313   0.62390   1.000
    O6      O    0.17912   0.11697   0.48826   1.000
    O7      O    0.12639   0.98244   0.68722   1.000
    Zr8     Zr   0.58705   0.41463   0.40333   1.000
    O9      O    0.67595   0.38632   0.51070   1.000
    O10     O    0.47877   0.31882   0.37421   1.000
    O11     O    0.62554   0.51415   0.31036   1.000
    Zr12    Zr   0.41026   0.91398   0.09517   1.000
    O13     O    0.32116   0.88253   0.98820   1.000
    O14     O    0.52041   0.81637   0.12388   1.000
    O15     O    0.37385   0.01672   0.18769   1.000
    Zr16    Zr   0.91331   0.58515   0.90340   1.000
    O17     O    0.87486   0.48565   0.81044   1.000
    O18     O    0.82441   0.61346   0.01069   1.000
    O19     O    0.02164   0.68080   0.87418   1.000
loop_
    _geom_bond_atom_site_label_1
    _geom_bond_atom_site_label_2
    _geom_bond_distance
    _geom_bond_site_symmetry_2
    _ccdc_geom_bond_type
    Zr4    O5        2.07135  1_455   S
    N3     O5        3.13094      .   S
    Zr4    O6        2.09103      .   S
    N1     O6        3.15140      .   S
    Zr4    O7        2.09927  1_545   S
    N2     O7        3.16165      .   S
    Zr8    O9        2.07225      .   S
    N3     O9        3.12645      .   S
    Zr8    O10       2.08594      .   S
    N1     O10       3.14634      .   S
    Zr8    O11       2.09884      .   S
    N0     O11       3.16375      .   S
    Zr12   O13       2.09176  1_554   S
    N2     O13       3.15213      .   S
    Zr12   O14       2.06794      .   S
    N0     O14       3.12715      .   S
    Zr12   O15       2.10269  1_565   S
    N1     O15       3.16626      .   S
    Zr16   O17       2.09894      .   S
    N3     O17       3.16403      .   S
    Zr16   O18       2.07364  1_556   S
    N0     O18       3.12782      .   S
    Zr16   O19       2.08542  1_655   S
    N2     O19       3.14567      .   S
