# CIF file generated by openbabel 2.4.90, see http://openbabel.sf.net
data_I
_chemical_name_common ''
_cell_length_a 13.501
_cell_length_b 14.422
_cell_length_c 15.353
_cell_angle_alpha 89.961
_cell_angle_beta 90.056
_cell_angle_gamma 88.507
_space_group_name_H-M_alt 'P 1'
_space_group_name_Hall 'P 1'
loop_
    _symmetry_equiv_pos_as_xyz
    x,y,z
loop_
    _atom_site_label
    _atom_site_type_symbol
    _atom_site_fract_x
    _atom_site_fract_y
    _atom_site_fract_z
    _atom_site_occupancy
    C0      C    0.45793   0.96036   0.05570   1.000
    C1      C    0.32142   0.83233   0.16313   1.000
    C2      C    0.04195   0.03942   0.55561   1.000
    C3      C    0.17897   0.16457   0.66318   1.000
    C4      C    0.53715   0.46041   0.44098   1.000
    C5      C    0.67906   0.32748   0.34018   1.000
    C6      C    0.96306   0.53957   0.94106   1.000
    C7      C    0.82097   0.67248   0.84017   1.000
    C8      C    0.53946   0.69602   0.26539   1.000
    C9      C    0.78359   0.51708   0.18656   1.000
    C10     C    0.70797   0.76165   0.03655   1.000
    C11     C    0.96119   0.30389   0.76564   1.000
    C12     C    0.71688   0.48275   0.68636   1.000
    C13     C    0.79211   0.23798   0.53697   1.000
    C14     C    0.45966   0.19810   0.23067   1.000
    C15     C    0.22057   0.02636   0.31282   1.000
    C16     C    0.29502   0.26724   0.46282   1.000
    C17     C    0.04058   0.80079   0.73043   1.000
    C18     C    0.27972   0.97307   0.81170   1.000
    C19     C    0.20558   0.73289   0.96304   1.000
    C20     C    0.61745   0.73816   0.14995   1.000
    C21     C    0.60031   0.67992   0.22105   1.000
    C22     C    0.66052   0.60073   0.23465   1.000
    C23     C    0.73757   0.57925   0.17653   1.000
    C24     C    0.75449   0.63706   0.10506   1.000
    C25     C    0.69492   0.71690   0.09220   1.000
    C26     C    0.55007   0.81984   0.13424   1.000
    C27     C    0.64089   0.53689   0.30870   1.000
    C28     C    0.83278   0.61293   0.04064   1.000
    C29     C    0.88293   0.26157   0.65031   1.000
    C30     C    0.90022   0.31992   0.72128   1.000
    C31     C    0.84000   0.39912   0.73469   1.000
    C32     C    0.76285   0.42054   0.67651   1.000
    C33     C    0.74583   0.36268   0.60515   1.000
    C34     C    0.80533   0.28279   0.59254   1.000
    C35     C    0.95031   0.17990   0.63460   1.000
    C36     C    0.85955   0.46301   0.80869   1.000
    C37     C    0.66745   0.38685   0.54060   1.000
    C38     C    0.38324   0.24201   0.34751   1.000
    C39     C    0.39998   0.18365   0.27586   1.000
    C40     C    0.34078   0.10656   0.26278   1.000
    C41     C    0.26563   0.08700   0.32230   1.000
    C42     C    0.24963   0.14449   0.39472   1.000
    C43     C    0.30768   0.22260   0.40662   1.000
    C44     C    0.44932   0.32158   0.36260   1.000
    C45     C    0.35954   0.04281   0.18785   1.000
    C46     C    0.17422   0.12178   0.46141   1.000
    C47     C    0.11724   0.75746   0.84751   1.000
    C48     C    0.10034   0.81545   0.77555   1.000
    C49     C    0.15950   0.89246   0.76201   1.000
    C50     C    0.23470   0.91245   0.82155   1.000
    C51     C    0.25070   0.85541   0.89437   1.000
    C52     C    0.19280   0.77725   0.90659   1.000
    C53     C    0.05126   0.67788   0.86284   1.000
    C54     C    0.14049   0.95549   0.68656   1.000
    C55     C    0.32612   0.87843   0.96109   1.000
    C56     C    0.56865   0.87179   0.06793   1.000
    C57     C    0.47697   0.83488   0.18504   1.000
    C58     C    0.56264   0.55470   0.35459   1.000
    C59     C    0.70105   0.46926   0.32250   1.000
    C60     C    0.88263   0.53601   0.04880   1.000
    C61     C    0.84962   0.66836   0.97750   1.000
    C62     C    0.93154   0.12812   0.56820   1.000
    C63     C    0.02349   0.16472   0.68545   1.000
    C64     C    0.93774   0.44521   0.85479   1.000
    C65     C    0.79939   0.53065   0.82229   1.000
    C66     C    0.61760   0.46376   0.54883   1.000
    C67     C    0.65060   0.33155   0.47750   1.000
    C68     C    0.42748   0.37676   0.42646   1.000
    C69     C    0.52432   0.33164   0.31369   1.000
    C70     C    0.43672   0.05811   0.14068   1.000
    C71     C    0.30030   0.97740   0.17396   1.000
    C72     C    0.12530   0.04666   0.45179   1.000
    C73     C    0.16040   0.17615   0.52593   1.000
    C74     C    0.07356   0.62243   0.92640   1.000
    C75     C    0.97586   0.66807   0.81423   1.000
    C76     C    0.06214   0.94121   0.64055   1.000
    C77     C    0.20052   0.01988   0.67095   1.000
    C78     C    0.37450   0.95385   0.95161   1.000
    C79     C    0.34066   0.82401   0.02560   1.000
    O80     O    0.33104   0.82817   0.09436   1.000
    O81     O    0.33339   0.85122   0.99334   1.000
    O82     O    0.70145   0.73928   0.06438   1.000
    O83     O    0.85771   0.57447   0.04472   1.000
    O84     O    0.79363   0.62500   0.07285   1.000
    O85     O    0.84120   0.64065   0.00907   1.000
    O86     O    0.92285   0.53779   0.99493   1.000
    O87     O    0.51329   0.91608   0.06181   1.000
    O88     O    0.44733   0.00923   0.09819   1.000
    O89     O    0.41622   0.95711   0.00365   1.000
    O90     O    0.55936   0.84581   0.10108   1.000
    O91     O    0.72470   0.67698   0.09863   1.000
    O92     O    0.65618   0.72753   0.12107   1.000
    O93     O    0.74603   0.60816   0.14079   1.000
    O94     O    0.58376   0.77900   0.14209   1.000
    O95     O    0.51352   0.82736   0.15964   1.000
    O96     O    0.39813   0.05046   0.16426   1.000
    O97     O    0.60888   0.70904   0.18550   1.000
    O98     O    0.31086   0.90486   0.16855   1.000
    O99     O    0.39920   0.83360   0.17408   1.000
    O100    O    0.32992   0.01010   0.18091   1.000
    O101    O    0.76058   0.54817   0.18154   1.000
    O102    O    0.69905   0.58999   0.20559   1.000
    O103    O    0.35016   0.07468   0.22531   1.000
    O104    O    0.63041   0.64033   0.22785   1.000
    O105    O    0.56989   0.68797   0.24322   1.000
    O106    O    0.42982   0.19087   0.25326   1.000
    O107    O    0.65071   0.56881   0.27167   1.000
    O108    O    0.37038   0.14510   0.26932   1.000
    O109    O    0.30321   0.09678   0.29254   1.000
    O110    O    0.39161   0.21283   0.31168   1.000
    O111    O    0.67097   0.50307   0.31560   1.000
    O112    O    0.60177   0.54579   0.33165   1.000
    O113    O    0.24310   0.05668   0.31756   1.000
    O114    O    0.60169   0.32956   0.32693   1.000
    O115    O    0.48682   0.32661   0.33814   1.000
    O116    O    0.25763   0.11575   0.35851   1.000
    O117    O    0.69006   0.39837   0.33134   1.000
    O118    O    0.66483   0.32951   0.40884   1.000
    O119    O    0.41628   0.28179   0.35505   1.000
    O120    O    0.34546   0.23230   0.37706   1.000
    O121    O    0.54989   0.50755   0.39778   1.000
    O122    O    0.43840   0.34917   0.39453   1.000
    O123    O    0.27866   0.18354   0.40067   1.000
    O124    O    0.21192   0.13314   0.42806   1.000
    O125    O    0.30135   0.24492   0.43472   1.000
    O126    O    0.48231   0.41858   0.43372   1.000
    O127    O    0.57737   0.46209   0.49490   1.000
    O128    O    0.14976   0.08422   0.45660   1.000
    O129    O    0.08362   0.04304   0.50370   1.000
    O130    O    0.16731   0.14897   0.49367   1.000
    O131    O    0.65902   0.35920   0.50905   1.000
    O132    O    0.16969   0.17036   0.59455   1.000
    O133    O    0.79872   0.26039   0.56475   1.000
    O134    O    0.64253   0.42531   0.54471   1.000
    O135    O    0.70664   0.37476   0.57287   1.000
    O136    O    0.98675   0.08377   0.56190   1.000
    O137    O    0.05204   0.99031   0.59808   1.000
    O138    O    0.94093   0.15401   0.60140   1.000
    O139    O    0.77558   0.32273   0.59884   1.000
    O140    O    0.84413   0.27218   0.62142   1.000
    O141    O    0.75434   0.39161   0.64083   1.000
    O142    O    0.91662   0.22074   0.64245   1.000
    O143    O    0.98690   0.17231   0.66002   1.000
    O144    O    0.10131   0.94835   0.66355   1.000
    O145    O    0.89158   0.29075   0.68579   1.000
    O146    O    0.18975   0.09222   0.66706   1.000
    O147    O    0.10123   0.16465   0.67431   1.000
    O148    O    0.17051   0.98768   0.67875   1.000
    O149    O    0.73986   0.45164   0.68143   1.000
    O150    O    0.80142   0.40983   0.70560   1.000
    O151    O    0.15000   0.92397   0.72428   1.000
    O152    O    0.87011   0.35952   0.72798   1.000
    O153    O    0.93070   0.31191   0.74346   1.000
    O154    O    0.07046   0.80812   0.75299   1.000
    O155    O    0.84978   0.43107   0.77169   1.000
    O156    O    0.12992   0.85396   0.76878   1.000
    O157    O    0.19710   0.90245   0.79178   1.000
    O158    O    0.10879   0.78646   0.81153   1.000
    O159    O    0.82947   0.49683   0.81549   1.000
    O160    O    0.89865   0.45411   0.83174   1.000
    O161    O    0.25721   0.94276   0.81662   1.000
    O162    O    0.89842   0.67028   0.82720   1.000
    O163    O    0.01356   0.67298   0.83853   1.000
    O164    O    0.24270   0.88393   0.85796   1.000
    O165    O    0.81018   0.60157   0.83123   1.000
    O166    O    0.83530   0.67042   0.90883   1.000
    O167    O    0.08425   0.71767   0.85517   1.000
    O168    O    0.15502   0.76736   0.87705   1.000
    O169    O    0.95040   0.49239   0.89792   1.000
    O170    O    0.06241   0.65016   0.89462   1.000
    O171    O    0.22175   0.81633   0.90048   1.000
    O172    O    0.28841   0.86692   0.92773   1.000
    O173    O    0.19919   0.75507   0.93481   1.000
    O174    O    0.01831   0.58100   0.93373   1.000
    O175    O    0.35031   0.91614   0.95635   1.000
loop_
    _geom_bond_atom_site_label_1
    _geom_bond_atom_site_label_2
    _geom_bond_distance
    _geom_bond_site_symmetry_2
    _ccdc_geom_bond_type
    C79    O80       1.06537      .   S
    C1     O80       1.06537      .   S
    C79    O81       0.63757  1_554   S
    C55    O81       0.63757      .   S
    C10    O82       0.54382      .   S
    C25    O82       0.54382      .   S
    C28    O83       0.64425      .   S
    C60    O83       0.64425      .   S
    C28    O84       0.74160      .   S
    C24    O84       0.74160      .   S
    C28    O85       0.64015      .   S
    C61    O85       0.64015  1_556   S
    C60    O86       0.99047  1_554   S
    C6     O86       0.99047      .   S
    C0     O87       0.97482      .   S
    C56    O87       0.97482      .   S
    C0     O88       0.96871  1_565   S
    C70    O88       0.96871      .   S
    C0     O89       0.97898      .   S
    C78    O89       0.97898  1_556   S
    C56    O90       0.64615      .   S
    C26    O90       0.64615      .   S
    C25    O91       0.70052      .   S
    C24    O91       0.70052      .   S
    C25    O92       0.69989      .   S
    C20    O92       0.69989      .   S
    C24    O93       0.70008      .   S
    C23    O93       0.70008      .   S
    C26    O94       0.74440      .   S
    C20    O94       0.74440      .   S
    C26    O95       0.63638      .   S
    C57    O95       0.63638      .   S
    C70    O96       0.64653      .   S
    C45    O96       0.64653      .   S
    C20    O97       0.70003      .   S
    C21    O97       0.70003      .   S
    C1     O98       1.05545      .   S
    C71    O98       1.05545      .   S
    C1     O99       1.06387      .   S
    C57    O99       1.06387      .   S
    C71    O100      0.63530  1_565   S
    C45    O100      0.63530      .   S
    C23    O101      0.54410      .   S
    C9     O101      0.54410      .   S
    C23    O102      0.69999      .   S
    C22    O102      0.69999      .   S
    C45    O103      0.74545      .   S
    C40    O103      0.74545      .   S
    C21    O104      0.69991      .   S
    C22    O104      0.69991      .   S
    C21    O105      0.54396      .   S
    C8     O105      0.54396      .   S
    C14    O106      0.54396      .   S
    C39    O106      0.54396      .   S
    C22    O107      0.74539      .   S
    C27    O107      0.74539      .   S
    C40    O108      0.70026      .   S
    C39    O108      0.70026      .   S
    C40    O109      0.70009      .   S
    C41    O109      0.70009      .   S
    C39    O110      0.70025      .   S
    C38    O110      0.70025      .   S
    C27    O111      0.63521      .   S
    C59    O111      0.63521      .   S
    C27    O112      0.64542      .   S
    C58    O112      0.64542      .   S
    C15    O113      0.54401      .   S
    C41    O113      0.54401      .   S
    C69    O114      1.06363      .   S
    C5     O114      1.06363      .   S
    C69    O115      0.63625      .   S
    C44    O115      0.63625      .   S
    C41    O116      0.70049      .   S
    C42    O116      0.70049      .   S
    C59    O117      1.04570      .   S
    C5     O117      1.04570      .   S
    C5     O118      1.07198      .   S
    C67    O118      1.07198      .   S
    C38    O119      0.74497      .   S
    C44    O119      0.74497      .   S
    C38    O120      0.69982      .   S
    C43    O120      0.69982      .   S
    C58    O121      0.96820      .   S
    C4     O121      0.96820      .   S
    C44    O122      0.64630      .   S
    C68    O122      0.64630      .   S
    C42    O123      0.70048      .   S
    C43    O123      0.70048      .   S
    C42    O124      0.74349      .   S
    C46    O124      0.74349      .   S
    C43    O125      0.54398      .   S
    C16    O125      0.54398      .   S
    C68    O126      0.97340      .   S
    C4     O126      0.97340      .   S
    C4     O127      0.99036      .   S
    C66    O127      0.99036      .   S
    C72    O128      0.64594      .   S
    C46    O128      0.64594      .   S
    C72    O129      0.97816      .   S
    C2     O129      0.97816      .   S
    C46    O130      0.63730      .   S
    C73    O130      0.63730      .   S
    C67    O131      0.63958      .   S
    C37    O131      0.63958      .   S
    C73    O132      1.06387      .   S
    C3     O132      1.06387      .   S
    C13    O133      0.54399      .   S
    C34    O133      0.54399      .   S
    C37    O134      0.64440      .   S
    C66    O134      0.64440      .   S
    C37    O135      0.74189      .   S
    C33    O135      0.74189      .   S
    C2     O136      0.97433  1_455   S
    C62    O136      0.97433      .   S
    C2     O137      0.96927  1_545   S
    C76    O137      0.96927      .   S
    C62    O138      0.64642      .   S
    C35    O138      0.64642      .   S
    C34    O139      0.70047      .   S
    C33    O139      0.70047      .   S
    C34    O140      0.69984      .   S
    C29    O140      0.69984      .   S
    C33    O141      0.70006      .   S
    C32    O141      0.70006      .   S
    C35    O142      0.74469      .   S
    C29    O142      0.74469      .   S
    C35    O143      0.63652      .   S
    C63    O143      0.63652  1_455   S
    C76    O144      0.64625      .   S
    C54    O144      0.64625      .   S
    C29    O145      0.70015      .   S
    C30    O145      0.70015      .   S
    C3     O146      1.05139      .   S
    C77    O146      1.05139      .   S
    C3     O147      1.06352      .   S
    C63    O147      1.06352      .   S
    C77    O148      0.63560  1_545   S
    C54    O148      0.63560      .   S
    C32    O149      0.54408      .   S
    C12    O149      0.54408      .   S
    C32    O150      0.69990      .   S
    C31    O150      0.69990      .   S
    C54    O151      0.74496      .   S
    C49    O151      0.74496      .   S
    C30    O152      0.70004      .   S
    C31    O152      0.70004      .   S
    C30    O153      0.54396      .   S
    C11    O153      0.54396      .   S
    C17    O154      0.54395      .   S
    C48    O154      0.54395      .   S
    C31    O155      0.74548      .   S
    C36    O155      0.74548      .   S
    C49    O156      0.70017      .   S
    C48    O156      0.70017      .   S
    C49    O157      0.70058      .   S
    C50    O157      0.70058      .   S
    C48    O158      0.70009      .   S
    C47    O158      0.70009      .   S
    C36    O159      0.63530      .   S
    C65    O159      0.63530      .   S
    C36    O160      0.64525      .   S
    C64    O160      0.64525      .   S
    C18    O161      0.54412      .   S
    C50    O161      0.54412      .   S
    C75    O162      1.06423      .   S
    C7     O162      1.06423      .   S
    C75    O163      0.63628  1_655   S
    C53    O163      0.63628      .   S
    C50    O164      0.70039      .   S
    C51    O164      0.70039      .   S
    C65    O165      1.04593      .   S
    C7     O165      1.04593      .   S
    C7     O166      1.07187      .   S
    C61    O166      1.07187      .   S
    C47    O167      0.74486      .   S
    C53    O167      0.74486      .   S
    C47    O168      0.69975      .   S
    C52    O168      0.69975      .   S
    C64    O169      0.96812      .   S
    C6     O169      0.96812      .   S
    C53    O170      0.64582      .   S
    C74    O170      0.64582      .   S
    C51    O171      0.70051      .   S
    C52    O171      0.70051      .   S
    C51    O172      0.74371      .   S
    C55    O172      0.74371      .   S
    C52    O173      0.54395      .   S
    C19    O173      0.54395      .   S
    C74    O174      0.97436      .   S
    C6     O174      0.97436  1_655   S
    C78    O175      0.64574      .   S
    C55    O175      0.64574      .   S
