# CIF file generated by openbabel 2.4.90, see http://openbabel.sf.net
data_I
_chemical_name_common ''
_cell_length_a 13.59
_cell_length_b 13.596
_cell_length_c 13.604
_cell_angle_alpha 87.248
_cell_angle_beta 87.32
_cell_angle_gamma 87.467
_space_group_name_H-M_alt 'P 1'
_space_group_name_Hall 'P 1'
loop_
    _symmetry_equiv_pos_as_xyz
    x,y,z
loop_
    _atom_site_label
    _atom_site_type_symbol
    _atom_site_fract_x
    _atom_site_fract_y
    _atom_site_fract_z
    _atom_site_occupancy
    H0      H    0.99835   0.43573   0.66500   1.000
    H1      H    0.66696   0.00000   0.43472   1.000
    H2      H    0.43294   0.66670   0.00000   1.000
    H3      H    0.56739   0.00158   0.33475   1.000
    H4      H    0.00110   0.33630   0.56570   1.000
    H5      H    0.33305   0.56660   0.00071   1.000
    H6      H    0.99823   0.56756   0.33516   1.000
    H7      H    0.33642   0.00144   0.56545   1.000
    H8      H    0.56433   0.33679   0.99963   1.000
    H9      H    0.43540   0.00000   0.66476   1.000
    H10     H    0.00000   0.66670   0.43445   1.000
    H11     H    0.66342   0.43605   0.00000   1.000
    H12     H    0.01643   0.73755   0.73655   1.000
    H13     H    0.73750   0.01576   0.73694   1.000
    H14     H    0.73545   0.73806   0.01589   1.000
    H15     H    0.26494   0.98769   0.26343   1.000
    H16     H    0.98340   0.26539   0.26399   1.000
    H17     H    0.26231   0.26424   0.98370   1.000
    C18     C    0.00645   0.55148   0.81692   1.000
    C19     C    0.00230   0.51228   0.63890   1.000
    C20     C    0.00758   0.58275   0.70996   1.000
    C21     C    0.81834   0.00729   0.55105   1.000
    C22     C    0.64043   0.00343   0.51120   1.000
    C23     C    0.71130   0.00800   0.58203   1.000
    C24     C    0.54956   0.81840   0.00802   1.000
    C25     C    0.50951   0.64041   0.00363   1.000
    C26     C    0.58038   0.71143   0.00850   1.000
    C27     C    0.45076   0.99532   0.18316   1.000
    C28     C    0.49075   0.99883   0.36107   1.000
    C29     C    0.41997   0.99463   0.29011   1.000
    C30     C    0.99317   0.18480   0.44968   1.000
    C31     C    0.99726   0.36275   0.48925   1.000
    C32     C    0.99202   0.29182   0.41870   1.000
    C33     C    0.18156   0.44992   0.99306   1.000
    C34     C    0.35952   0.49014   0.99720   1.000
    C35     C    0.28862   0.41920   0.99216   1.000
    C36     C    0.99117   0.45136   0.18364   1.000
    C37     C    0.99581   0.49089   0.36149   1.000
    C38     C    0.99085   0.42030   0.29056   1.000
    C39     C    0.18473   0.99534   0.44948   1.000
    C40     C    0.36277   0.99879   0.48890   1.000
    C41     C    0.29167   0.99461   0.41830   1.000
    C42     C    0.44878   0.18475   0.99214   1.000
    C43     C    0.48769   0.36283   0.99671   1.000
    C44     C    0.41723   0.29152   0.99165   1.000
    C45     C    0.55104   0.00786   0.81670   1.000
    C46     C    0.51210   0.00372   0.63867   1.000
    C47     C    0.58256   0.00827   0.70988   1.000
    C48     C    0.00899   0.81818   0.55044   1.000
    C49     C    0.00403   0.64029   0.51105   1.000
    C50     C    0.00905   0.71119   0.58166   1.000
    C51     C    0.81534   0.55190   0.00730   1.000
    C52     C    0.63721   0.51259   0.00323   1.000
    C53     C    0.70844   0.58317   0.00807   1.000
    C54     C    0.00178   0.53927   0.53790   1.000
    C55     C    0.01211   0.68266   0.68150   1.000
    C56     C    0.53927   0.00261   0.53775   1.000
    C57     C    0.68263   0.01172   0.68181   1.000
    C58     C    0.53619   0.53942   0.00211   1.000
    C59     C    0.68030   0.68306   0.01187   1.000
    C60     C    0.46385   0.99972   0.46200   1.000
    C61     C    0.31998   0.99132   0.31844   1.000
    C62     C    0.99789   0.46386   0.46243   1.000
    C63     C    0.98765   0.32032   0.31892   1.000
    C64     C    0.46064   0.46372   0.99833   1.000
    C65     C    0.31721   0.31944   0.98805   1.000
    O66     O    0.02450   0.61736   0.87680   1.000
    O67     O    0.98687   0.46195   0.84011   1.000
    O68     O    0.87834   0.02541   0.61688   1.000
    O69     O    0.84145   0.98791   0.46163   1.000
    O70     O    0.61622   0.87847   0.02391   1.000
    O71     O    0.45948   0.84138   0.99084   1.000
    O72     O    0.38399   0.97914   0.12348   1.000
    O73     O    0.54079   0.01273   0.15983   1.000
    O74     O    0.97523   0.12488   0.38375   1.000
    O75     O    0.01281   0.16168   0.53909   1.000
    O76     O    0.12148   0.38389   0.97522   1.000
    O77     O    0.15856   0.53939   0.01246   1.000
    O78     O    0.97477   0.38485   0.12380   1.000
    O79     O    0.00874   0.54137   0.16047   1.000
    O80     O    0.12460   0.97919   0.38313   1.000
    O81     O    0.16186   0.01272   0.53943   1.000
    O82     O    0.38300   0.12448   0.97415   1.000
    O83     O    0.53838   0.16208   0.01146   1.000
    O84     O    0.61687   0.02630   0.87660   1.000
    O85     O    0.46148   0.98838   0.83980   1.000
    O86     O    0.02530   0.87824   0.61675   1.000
    O87     O    0.99171   0.84123   0.46044   1.000
    O88     O    0.87564   0.61815   0.02370   1.000
    O89     O    0.83804   0.46198   0.98952   1.000
loop_
    _geom_bond_atom_site_label_1
    _geom_bond_atom_site_label_2
    _geom_bond_distance
    _geom_bond_site_symmetry_2
    _ccdc_geom_bond_type
    H11    C52       1.08718      .   S
    H2     C25       1.08782      .   S
    H5     C34       1.08735  1_554   S
    C58    C52       1.40539      .   S
    C58    C25       1.40550      .   S
    C58    C64       1.48979  1_554   S
    C52    C53       1.39870      .   S
    C25    C26       1.39944      .   S
    C51    C53       1.49522      .   S
    C51    O88       1.27834      .   S
    C51    O89       1.27921  1_554   S
    C24    C26       1.49542      .   S
    C24    O70       1.27876      .   S
    C24    O71       1.27933  1_554   S
    C53    C59       1.39730      .   S
    C26    C59       1.39735      .   S
    O83    C42       1.27892  1_554   S
    C59    H14       1.08684      .   S
    O77    C33       1.27921  1_554   S
    O72    C27       1.27857      .   S
    O78    C36       1.27893      .   S
    O73    C27       1.27894  1_545   S
    O79    C36       1.27889  1_455   S
    C27    C29       1.49473      .   S
    C36    C38       1.49488      .   S
    H15    C61       1.08677      .   S
    H16    C63       1.08674      .   S
    C29    C61       1.39701      .   S
    C29    C28       1.39913      .   S
    C38    C63       1.39701      .   S
    C38    C37       1.39917      .   S
    C61    C41       1.39678      .   S
    C63    C32       1.39688      .   S
    H3     C28       1.08709  1_545   S
    H6     C37       1.08714      .   S
    C28    C60       1.40474      .   S
    C37    C62       1.40563      .   S
    O80    C39       1.27856      .   S
    O74    C30       1.27895      .   S
    C41    C39       1.49451      .   S
    C41    C40       1.39862      .   S
    C32    C30       1.49493      .   S
    C32    C31       1.39909      .   S
    H10    C49       1.08884      .   S
    H1     C22       1.08757      .   S
    C39    O81       1.27887  1_565   S
    C30    O75       1.27893  1_655   S
    O87    C48       1.27906  1_655   S
    O69    C21       1.27890  1_565   S
    C60    C40       1.40549      .   S
    C60    C56       1.49005  1_565   S
    C62    C31       1.40557      .   S
    C62    C54       1.48964  1_655   S
    C40    H7        1.08700  1_565   S
    C31    H4        1.08681  1_655   S
    C49    C54       1.40542      .   S
    C49    C50       1.39912      .   S
    C22    C56       1.40527      .   S
    C22    C23       1.39919      .   S
    C56    C46       1.40555      .   S
    C54    C19       1.40529      .   S
    C48    C50       1.49561      .   S
    C48    O86       1.27871      .   S
    C21    C23       1.49525      .   S
    C21    O68       1.27860      .   S
    C50    C55       1.39650      .   S
    C23    C57       1.39723      .   S
    C46    H9        1.08788      .   S
    C46    C47       1.39884      .   S
    C19    H0        1.08623  1_455   S
    C19    C20       1.39964      .   S
    C55    C20       1.39779      .   S
    C55    H12       1.08757      .   S
    C57    C47       1.39754      .   S
    C57    H13       1.08688      .   S
    C47    C45       1.49546      .   S
    C20    C18       1.49578      .   S
    C45    O85       1.27875  1_545   S
    C45    O84       1.27866      .   S
    C18    O67       1.27897  1_455   S
    C18    O66       1.27836      .   S
    O82    C42       1.27861      .   S
    O76    C33       1.27895      .   S
    H17    C65       1.08689      .   S
    C65    C44       1.39746      .   S
    C65    C35       1.39732      .   S
    C44    C42       1.49517      .   S
    C44    C43       1.39872      .   S
    C35    C33       1.49549      .   S
    C35    C34       1.39937      .   S
    C43    C64       1.40534      .   S
    C43    H8        1.08696      .   S
    C34    C64       1.40549      .   S
