# CIF file generated by openbabel 2.4.90, see http://openbabel.sf.net
data_I
_chemical_name_common ''
_cell_length_a 13.59
_cell_length_b 13.596
_cell_length_c 13.604
_cell_angle_alpha 87.248
_cell_angle_beta 87.32
_cell_angle_gamma 87.467
_space_group_name_H-M_alt 'P 1'
_space_group_name_Hall 'P 1'
loop_
    _symmetry_equiv_pos_as_xyz
    x,y,z
loop_
    _atom_site_label
    _atom_site_type_symbol
    _atom_site_fract_x
    _atom_site_fract_y
    _atom_site_fract_z
    _atom_site_occupancy
    Cu0     Cu   0.02120   0.02109   0.58377   1.000
    Cu1     Cu   0.58387   0.02156   0.01927   1.000
    Cu2     Cu   0.41619   0.98191   0.98036   1.000
    Cu3     Cu   0.98182   0.98187   0.41636   1.000
    Cu4     Cu   0.97862   0.41719   0.98070   1.000
    Cu5     Cu   0.01836   0.58481   0.01976   1.000
loop_
    _geom_bond_atom_site_label_1
    _geom_bond_atom_site_label_2
    _geom_bond_distance
    _geom_bond_site_symmetry_2
    _ccdc_geom_bond_type
    Cu5    Cu4       2.45342  1_454   S
    Cu0    Cu3       2.45220  1_445   S
    Cu1    Cu2       2.45204  1_544   S
