# CIF file generated by openbabel 2.4.90, see http://openbabel.sf.net
data_I
_chemical_name_common ''
_cell_length_a 13.59
_cell_length_b 13.596
_cell_length_c 13.604
_cell_angle_alpha 87.248
_cell_angle_beta 87.32
_cell_angle_gamma 87.467
_space_group_name_H-M_alt 'P 1'
_space_group_name_Hall 'P 1'
loop_
    _symmetry_equiv_pos_as_xyz
    x,y,z
loop_
    _atom_site_label
    _atom_site_type_symbol
    _atom_site_fract_x
    _atom_site_fract_y
    _atom_site_fract_z
    _atom_site_occupancy
    N0      N    0.50134   0.00132   0.50005   1.000
    N1      N    0.49868   0.50134   0.00011   1.000
    N2      N    0.99985   0.50150   0.50017   1.000
    Zr3     Zr   0.50003   0.00173   0.99982   1.000
    Zr4     Zr   0.00151   0.00148   0.50007   1.000
    Zr5     Zr   0.99849   0.50100   0.00023   1.000
    O6      O    0.14418   0.00075   0.49521   1.000
    O7      O    0.85876   0.00209   0.50496   1.000
    O8      O    0.00197   0.85877   0.50491   1.000
    O9      O    0.00016   0.14421   0.49526   1.000
    O10     O    0.14123   0.49616   0.99940   1.000
    O11     O    0.85583   0.50597   0.00100   1.000
    O12     O    0.99799   0.49639   0.14295   1.000
    O13     O    0.99973   0.50596   0.85749   1.000
    O14     O    0.50525   0.00233   0.85717   1.000
    O15     O    0.49565   0.00091   0.14260   1.000
    O16     O    0.50442   0.85891   0.00083   1.000
    O17     O    0.49477   0.14433   0.99901   1.000
loop_
    _geom_bond_atom_site_label_1
    _geom_bond_atom_site_label_2
    _geom_bond_distance
    _geom_bond_site_symmetry_2
    _ccdc_geom_bond_type
    Zr4    O6        1.93655      .   S
    N0     O6        4.85764      .   S
    Zr4    O7        1.93759  1_455   S
    N0     O7        4.86149      .   S
    Zr4    O8        1.93804  1_545   S
    N2     O8        4.86231  1_655   S
    Zr4    O9        1.93781      .   S
    N2     O9        4.86117  1_655   S
    Zr5    O10       1.93757  1_654   S
    N1     O10       4.86189  1_554   S
    Zr5    O11       1.93646      .   S
    N1     O11       4.85742      .   S
    Zr5    O12       1.93931      .   S
    N2     O12       4.86466      .   S
    Zr5    O13       1.93904  1_554   S
    N2     O13       4.86425      .   S
    N0     O14       4.86179      .   S
    Zr3    O14       1.93815      .   S
    N0     O15       4.86716      .   S
    Zr3    O15       1.94012  1_556   S
    Zr3    O16       1.93953  1_546   S
    N1     O16       4.86609      .   S
    Zr3    O17       1.93640      .   S
    N1     O17       4.85729  1_554   S
