# CIF file generated by openbabel 2.4.90, see http://openbabel.sf.net
data_I
_chemical_name_common ''
_cell_length_a 13.59
_cell_length_b 13.596
_cell_length_c 13.604
_cell_angle_alpha 87.248
_cell_angle_beta 87.32
_cell_angle_gamma 87.467
_space_group_name_H-M_alt 'P 1'
_space_group_name_Hall 'P 1'
loop_
    _symmetry_equiv_pos_as_xyz
    x,y,z
loop_
    _atom_site_label
    _atom_site_type_symbol
    _atom_site_fract_x
    _atom_site_fract_y
    _atom_site_fract_z
    _atom_site_occupancy
    Zr0     Zr   0.01836   0.58481   0.01976   1.000
    Zr1     Zr   0.02120   0.02109   0.58377   1.000
    Zr2     Zr   0.58387   0.02156   0.01927   1.000
    Zr3     Zr   0.41619   0.98191   0.98036   1.000
    Zr4     Zr   0.98182   0.98187   0.41636   1.000
    Zr5     Zr   0.97862   0.41719   0.98070   1.000
    O6      O    0.99849   0.50100   0.00023   1.000
    O7      O    0.00151   0.00148   0.50006   1.000
    O8      O    0.50003   0.00173   0.99982   1.000
    N9      N    0.50134   0.00132   0.50005   1.000
    O10     O    0.72555   0.01229   0.55019   1.000
    O11     O    0.70649   0.99311   0.46952   1.000
    O12     O    0.45071   0.99093   0.27598   1.000
    O13     O    0.53183   0.00923   0.29480   1.000
    O14     O    0.27727   0.99093   0.44990   1.000
    O15     O    0.29643   0.00911   0.53082   1.000
    O16     O    0.55085   0.01263   0.72399   1.000
    O17     O    0.47008   0.99324   0.70506   1.000
    N18     N    0.49868   0.50134   0.00011   1.000
    O19     O    0.54936   0.72568   0.01085   1.000
    O20     O    0.46826   0.70649   0.99285   1.000
    O21     O    0.27437   0.45094   0.98903   1.000
    O22     O    0.29357   0.53172   0.00811   1.000
    O23     O    0.44914   0.27727   0.98868   1.000
    O24     O    0.52990   0.29658   0.00774   1.000
    O25     O    0.72284   0.55141   0.01092   1.000
    O26     O    0.70351   0.47046   0.99261   1.000
    N27     N    0.99985   0.50150   0.50017   1.000
    O28     O    0.01064   0.55129   0.72422   1.000
    O29     O    0.99130   0.47054   0.70529   1.000
    O30     O    0.98919   0.27744   0.45011   1.000
    O31     O    0.00843   0.29644   0.53080   1.000
    O32     O    0.98827   0.45126   0.27621   1.000
    O33     O    0.00670   0.53229   0.29514   1.000
    O34     O    0.01155   0.72558   0.55021   1.000
    O35     O    0.99331   0.70652   0.46928   1.000
loop_
    _geom_bond_atom_site_label_1
    _geom_bond_atom_site_label_2
    _geom_bond_distance
    _geom_bond_site_symmetry_2
    _ccdc_geom_bond_type
    Zr0    O6        1.22671  1_455   S
    Zr5    O6        1.22671  1_556   S
    Zr1    O7        1.22610      .   S
    Zr4    O7        1.22610  1_665   S
    Zr2    O8        1.22602  1_554   S
    Zr3    O8        1.22602  1_565   S
    N9     O10       3.16489      .   S
    Zr1    O10       4.07252  1_455   S
    N9     O11       2.79756  1_545   S
    Zr4    O11       3.77547      .   S
    N9     O12       3.16712  1_545   S
    Zr3    O12       4.07894  1_556   S
    N9     O13       2.80117      .   S
    Zr2    O13       3.77890      .   S
    N9     O14       3.16217  1_545   S
    Zr4    O14       4.07010  1_655   S
    N9     O15       2.79464      .   S
    Zr1    O15       3.77380      .   S
    N9     O16       3.16286      .   S
    Zr2    O16       4.07092  1_554   S
    N9     O17       2.79914  1_545   S
    Zr3    O17       3.77946      .   S
    N18    O19       3.16807      .   S
    Zr2    O19       4.07824  1_545   S
    N18    O20       2.79931  1_554   S
    Zr3    O20       3.77724      .   S
    N18    O21       3.16587  1_554   S
    Zr5    O21       4.07284  1_655   S
    N18    O22       2.79762      .   S
    Zr0    O22       3.77517      .   S
    N18    O23       3.16149  1_554   S
    Zr3    O23       4.06771  1_565   S
    N18    O24       2.79516      .   S
    Zr2    O24       3.77573      .   S
    N18    O25       3.16225      .   S
    Zr0    O25       4.06952  1_455   S
    N18    O26       2.79448  1_554   S
    Zr5    O26       3.77420      .   S
    N27    O28       3.16530  1_655   S
    Zr0    O28       4.07460  1_554   S
    N27    O29       2.79972      .   S
    Zr5    O29       3.77933      .   S
    N27    O30       3.16422      .   S
    Zr4    O30       4.07262  1_565   S
    N27    O31       2.79717  1_655   S
    Zr1    O31       3.77622      .   S
    N27    O32       3.16672      .   S
    Zr5    O32       4.07756  1_556   S
    N27    O33       2.79831  1_655   S
    Zr0    O33       3.77720      .   S
    N27    O34       3.16588  1_655   S
    Zr1    O34       4.07382  1_545   S
    N27    O35       2.79712      .   S
    Zr4    O35       3.77593      .   S
