# CIF file generated by openbabel 2.4.90, see http://openbabel.sf.net
data_I
_chemical_name_common ''
_cell_length_a 13.087
_cell_length_b 16.838
_cell_length_c 13.96
_cell_angle_alpha 105.88
_cell_angle_beta 89.81
_cell_angle_gamma 90.133
_space_group_name_H-M_alt 'P 1'
_space_group_name_Hall 'P 1'
loop_
    _symmetry_equiv_pos_as_xyz
    x,y,z
loop_
    _atom_site_label
    _atom_site_type_symbol
    _atom_site_fract_x
    _atom_site_fract_y
    _atom_site_fract_z
    _atom_site_occupancy
    Zr0     Zr   0.50146   0.81957   0.81287   1.000
    Zr1     Zr   0.44354   0.34732   0.10563   1.000
    Zr2     Zr   0.00412   0.18029   0.68739   1.000
    Zr3     Zr   0.94239   0.65222   0.39502   1.000
    Zr4     Zr   0.50232   0.17829   0.18685   1.000
    Zr5     Zr   0.55959   0.64999   0.89127   1.000
    Zr6     Zr   0.00000   0.81941   0.31243   1.000
    Zr7     Zr   0.05824   0.34768   0.60461   1.000
    N8      N    0.31609   0.11261   0.87965   1.000
    O9      O    0.37468   0.19929   0.98477   1.000
    O10     O    0.38938   0.15703   0.00508   1.000
    O11     O    0.39105   0.99110   0.86590   1.000
    O12     O    0.19006   0.13693   0.79710   1.000
    N13     N    0.68669   0.88524   0.11916   1.000
    O14     O    0.81329   0.86122   0.20185   1.000
    O15     O    0.62783   0.79851   0.01387   1.000
    O16     O    0.61330   0.84090   0.99427   1.000
    O17     O    0.61234   0.00692   0.13336   1.000
    N18     N    0.81652   0.88696   0.62189   1.000
    O19     O    0.87486   0.80027   0.51656   1.000
    O20     O    0.88926   0.84207   0.49591   1.000
    O21     O    0.68907   0.86280   0.70376   1.000
    O22     O    0.89228   0.00860   0.63557   1.000
    N23     N    0.76270   0.40882   0.36753   1.000
    O24     O    0.81948   0.51509   0.37220   1.000
    O25     O    0.89413   0.38623   0.45870   1.000
    O26     O    0.62526   0.38847   0.26552   1.000
    O27     O    0.65489   0.31661   0.29301   1.000
    N28     N    0.26354   0.59060   0.13197   1.000
    O29     O    0.39496   0.61229   0.03900   1.000
    O30     O    0.15509   0.68244   0.20661   1.000
    O31     O    0.32048   0.48448   0.12785   1.000
    O32     O    0.12524   0.61111   0.23437   1.000
    N33     N    0.73889   0.40774   0.86568   1.000
    O34     O    0.68241   0.51370   0.87005   1.000
    O35     O    0.87719   0.38803   0.76482   1.000
    O36     O    0.84822   0.31649   0.79220   1.000
    O37     O    0.60714   0.38545   0.95787   1.000
    N38     N    0.23759   0.59135   0.63193   1.000
    O39     O    0.18115   0.48485   0.62673   1.000
    O40     O    0.37647   0.61079   0.73245   1.000
    O41     O    0.34634   0.68293   0.70665   1.000
    O42     O    0.10601   0.61351   0.54087   1.000
    N43     N    0.18566   0.11301   0.37737   1.000
    O44     O    0.11066   0.99130   0.36412   1.000
    O45     O    0.31391   0.13649   0.29609   1.000
    O46     O    0.12721   0.19972   0.48294   1.000
    O47     O    0.11368   0.15787   0.50363   1.000
loop_
    _geom_bond_atom_site_label_1
    _geom_bond_atom_site_label_2
    _geom_bond_distance
    _geom_bond_site_symmetry_2
    _ccdc_geom_bond_type
    N8     O9        1.92408      .   S
    Zr1    O9        2.75139  1_554   S
    N8     O10       1.95871  1_556   S
    Zr4    O10       2.87700      .   S
    N8     O11       2.23118  1_545   S
    Zr0    O11       3.13369      .   S
    N8     O12       2.11904      .   S
    Zr2    O12       3.07325      .   S
    N13    O14       2.12419      .   S
    Zr6    O14       3.07853  1_455   S
    N13    O15       1.92716      .   S
    Zr5    O15       2.76370  1_556   S
    N13    O16       1.95315  1_554   S
    Zr0    O16       2.86511      .   S
    N13    O17       2.22925  1_565   S
    Zr4    O17       3.12895      .   S
    N18    O19       1.92329      .   S
    Zr3    O19       2.74948      .   S
    N18    O20       1.95844      .   S
    Zr6    O20       2.87224  1_455   S
    N18    O21       2.11946      .   S
    Zr0    O21       3.07444      .   S
    N18    O22       2.23441  1_565   S
    Zr2    O22       3.14098  1_455   S
    N23    O24       1.92055      .   S
    Zr3    O24       2.75756      .   S
    N23    O25       2.23732      .   S
    Zr7    O25       3.15306  1_455   S
    N23    O26       2.26439      .   S
    Zr1    O26       3.20924      .   S
    N23    O27       2.14450      .   S
    Zr4    O27       3.11727      .   S
    N28    O29       2.24007      .   S
    Zr5    O29       3.15886  1_556   S
    N28    O30       2.14712      .   S
    Zr6    O30       3.12374      .   S
    N28    O31       1.92379      .   S
    Zr1    O31       2.76502      .   S
    N28    O32       2.27024      .   S
    Zr3    O32       3.21827  1_655   S
    N33    O34       1.91824      .   S
    Zr5    O34       2.75307      .   S
    N33    O35       2.25800      .   S
    Zr7    O35       3.19659  1_455   S
    N33    O36       2.14433      .   S
    Zr2    O36       3.11901  1_455   S
    N33    O37       2.23981      .   S
    Zr1    O37       3.15279  1_554   S
    N38    O39       1.92080      .   S
    Zr7    O39       2.75918      .   S
    N38    O40       2.26776      .   S
    Zr5    O40       3.21263      .   S
    N38    O41       2.14725      .   S
    Zr0    O41       3.12164      .   S
    N38    O42       2.23554      .   S
    Zr3    O42       3.14912  1_655   S
    N43    O44       2.23198  1_545   S
    Zr6    O44       3.13686      .   S
    N43    O45       2.11905      .   S
    Zr4    O45       3.07487      .   S
    N43    O46       1.92586      .   S
    Zr7    O46       2.75527      .   S
    N43    O47       1.95670      .   S
    Zr2    O47       2.86830      .   S
