# CIF file generated by openbabel 2.4.90, see http://openbabel.sf.net
data_I
_chemical_name_common 'VESTA_phase_1'
_cell_length_a 15.74
_cell_length_b 23.167
_cell_length_c 13.534
_cell_angle_alpha 90.001
_cell_angle_beta 90
_cell_angle_gamma 109.791
_space_group_name_H-M_alt 'P 1'
_space_group_name_Hall 'P 1'
loop_
    _symmetry_equiv_pos_as_xyz
    x,y,z
loop_
    _atom_site_label
    _atom_site_type_symbol
    _atom_site_fract_x
    _atom_site_fract_y
    _atom_site_fract_z
    _atom_site_occupancy
    Cd0     Cd   0.14260   0.15668   0.25000   1.000
    Cd1     Cd   0.14260   0.65669   0.25000   1.000
    Cd2     Cd   0.64260   0.15668   0.25000   1.000
    Cd3     Cd   0.64260   0.65669   0.25000   1.000
    Cd4     Cd   0.35742   0.34333   0.75000   1.000
    Cd5     Cd   0.35742   0.84334   0.75000   1.000
    Cd6     Cd   0.85742   0.34333   0.75000   1.000
    Cd7     Cd   0.85742   0.84334   0.75000   1.000
    Cd8     Cd   0.48594   0.34403   0.24999   1.000
    Cd9     Cd   0.48594   0.84404   0.24999   1.000
    Cd10    Cd   0.98594   0.34403   0.20000   1.000
    Cd11    Cd   0.98594   0.84404   0.24999   1.000
    Cd12    Cd   0.01409   0.15598   0.75000   1.000
    Cd13    Cd   0.01409   0.65599   0.75000   1.000
    Cd14    Cd   0.51408   0.15598   0.75000   1.000
    Cd15    Cd   0.51408   0.65599   0.75000   1.000
    Cd16    Cd   0.25001   1.00000   0.99999   1.000
    Cd17    Cd   0.25001   0.50001   0.99999   1.000
    Cd18    Cd   0.75001   1.00000   0.00000   1.000
    Cd19    Cd   0.75001   0.50001   0.00000   1.000
    Cd20    Cd   0.25001   0.00000   0.50000   1.000
    Cd21    Cd   0.25001   0.50001   0.50000   1.000
    Cd22    Cd   0.75001   0.00000   0.50000   1.000
    Cd23    Cd   0.75001   0.50001   0.50000   1.000
    H24     H    0.09597   0.05532   0.90478   1.000
    H25     H    0.09597   0.55533   0.90470   1.000
    H26     H    0.59597   0.05532   0.90470   1.000
    H27     H    0.59597   0.55533   0.90478   1.000
    H28     H    0.19658   0.09637   0.83921   1.000
    H29     H    0.19658   0.59638   0.83921   1.000
    H30     H    0.69658   0.09638   0.83921   1.000
    H31     H    0.69658   0.59638   0.83921   1.000
    H32     H    0.04077   0.44383   0.59523   1.000
    H33     H    0.04077   0.94384   0.59523   1.000
    H34     H    0.54077   0.44383   0.59523   1.000
    H35     H    0.54077   0.94384   0.59523   1.000
    H36     H    0.10083   0.40305   0.66085   1.000
    H37     H    0.10083   0.90306   0.66085   1.000
    H38     H    0.60083   0.40305   0.66085   1.000
    H39     H    0.60083   0.90306   0.66085   1.000
    H40     H    0.09597   0.05532   0.59523   1.000
    H41     H    0.09597   0.55532   0.59523   1.000
    H42     H    0.59597   0.05532   0.59523   1.000
    H43     H    0.59597   0.55533   0.59523   1.000
    H44     H    0.19658   0.09638   0.66080   1.000
    H45     H    0.19658   0.59638   0.66080   1.000
    H46     H    0.69658   0.09638   0.66080   1.000
    H47     H    0.69658   0.59638   0.66080   1.000
    H48     H    0.04077   0.44383   0.90477   1.000
    H49     H    0.04077   0.94384   0.90477   1.000
    H50     H    0.54077   0.44383   0.90477   1.000
    H51     H    0.54077   0.94384   0.90477   1.000
    H52     H    0.10083   0.40305   0.83915   1.000
    H53     H    0.10083   0.90306   0.83910   1.000
    H54     H    0.60083   0.40305   0.83910   1.000
    H55     H    0.60083   0.90306   0.83915   1.000
    H56     H    0.46075   0.99943   0.81593   1.000
    H57     H    0.46074   0.49944   0.81593   1.000
    H58     H    0.96074   0.99943   0.81593   1.000
    H59     H    0.96074   0.49944   0.81593   1.000
    H60     H    0.46075   0.99943   0.68407   1.000
    H61     H    0.46074   0.49944   0.68408   1.000
    H62     H    0.96074   0.99943   0.68408   1.000
    H63     H    0.96074   0.49944   0.68407   1.000
    H64     H    0.23737   0.45896   0.75000   1.000
    H65     H    0.23737   0.95896   0.75000   1.000
    H66     H    0.73737   0.45896   0.75000   1.000
    H67     H    0.73737   0.95896   0.75000   1.000
    H68     H    0.27790   0.04085   0.75000   1.000
    H69     H    0.27790   0.54086   0.75000   1.000
    H70     H    0.77790   0.04085   0.75000   1.000
    H71     H    0.77791   0.54086   0.75000   1.000
    H72     H    0.40405   0.44470   0.40477   1.000
    H73     H    0.40405   0.94470   0.40477   1.000
    H74     H    0.90406   0.44469   0.40477   1.000
    H75     H    0.90406   0.94470   0.40477   1.000
    H76     H    0.30344   0.40364   0.33920   1.000
    H77     H    0.30344   0.90365   0.33920   1.000
    H78     H    0.80345   0.40364   0.33920   1.000
    H79     H    0.80344   0.90365   0.33920   1.000
    H80     H    0.45925   0.05618   0.09523   1.000
    H81     H    0.45925   0.55619   0.09523   1.000
    H82     H    0.95926   0.05618   0.09523   1.000
    H83     H    0.95926   0.55619   0.09523   1.000
    H84     H    0.39919   0.09696   0.16080   1.000
    H85     H    0.39919   0.59697   0.16085   1.000
    H86     H    0.89919   0.09696   0.16085   1.000
    H87     H    0.89919   0.59697   0.16080   1.000
    H88     H    0.40405   0.44469   0.09520   1.000
    H89     H    0.40405   0.94470   0.09522   1.000
    H90     H    0.90406   0.44469   0.09522   1.000
    H91     H    0.90406   0.94470   0.09522   1.000
    H92     H    0.30344   0.40364   0.16079   1.000
    H93     H    0.30344   0.90364   0.16079   1.000
    H94     H    0.80345   0.40364   0.16079   1.000
    H95     H    0.80344   0.90364   0.16079   1.000
    H96     H    0.45925   0.05618   0.40477   1.000
    H97     H    0.45925   0.55619   0.40477   1.000
    H98     H    0.95926   0.05618   0.40477   1.000
    H99     H    0.95926   0.55619   0.40477   1.000
    H100    H    0.39919   0.09696   0.33915   1.000
    H101    H    0.39919   0.59697   0.33915   1.000
    H102    H    0.89919   0.09696   0.33915   1.000
    H103    H    0.89920   0.59697   0.33915   1.000
    H104    H    0.03928   0.00058   0.31590   1.000
    H105    H    0.03929   0.50058   0.31592   1.000
    H106    H    0.53928   0.00058   0.31592   1.000
    H107    H    0.53928   0.50058   0.31593   1.000
    H108    H    0.03928   0.00058   0.18407   1.000
    H109    H    0.03929   0.50058   0.18407   1.000
    H110    H    0.53928   0.00058   0.18407   1.000
    H111    H    0.53928   0.50058   0.18407   1.000
    H112    H    0.26265   0.04106   0.25000   1.000
    H113    H    0.26265   0.54106   0.25000   1.000
    H114    H    0.76265   0.04106   0.25000   1.000
    H115    H    0.76265   0.54106   0.25000   1.000
    H116    H    0.22212   0.45916   0.25000   1.000
    H117    H    0.22212   0.95917   0.25000   1.000
    H118    H    0.72212   0.45916   0.25000   1.000
    H119    H    0.72212   0.95916   0.25000   1.000
    C120    C    0.17504   0.10601   0.12242   1.000
    C121    C    0.17504   0.60601   0.12242   1.000
    C122    C    0.67504   0.10600   0.12242   1.000
    C123    C    0.67504   0.60601   0.12242   1.000
    C124    C    0.32498   0.39401   0.62242   1.000
    C125    C    0.32498   0.89401   0.62242   1.000
    C126    C    0.82498   0.39400   0.62242   1.000
    C127    C    0.82498   0.89401   0.62242   1.000
    C128    C    0.06915   0.39451   0.37751   1.000
    C129    C    0.06915   0.89451   0.37751   1.000
    C130    C    0.56915   0.39451   0.37751   1.000
    C131    C    0.56915   0.89451   0.37751   1.000
    C132    C    0.43088   0.10551   0.87752   1.000
    C133    C    0.43088   0.60552   0.87752   1.000
    C134    C    0.93088   0.10551   0.87752   1.000
    C135    C    0.93088   0.60552   0.87752   1.000
    C136    C    0.32499   0.39401   0.87758   1.000
    C137    C    0.32499   0.89402   0.87758   1.000
    C138    C    0.82498   0.39401   0.87758   1.000
    C139    C    0.82498   0.89401   0.87758   1.000
    C140    C    0.17504   0.10601   0.37758   1.000
    C141    C    0.17504   0.60601   0.37758   1.000
    C142    C    0.67504   0.10601   0.37758   1.000
    C143    C    0.67504   0.60601   0.37758   1.000
    C144    C    0.43088   0.10551   0.62249   1.000
    C145    C    0.43088   0.60551   0.62249   1.000
    C146    C    0.93088   0.10551   0.62240   1.000
    C147    C    0.93088   0.60552   0.62249   1.000
    C148    C    0.06914   0.39450   0.12248   1.000
    C149    C    0.06915   0.89451   0.12248   1.000
    C150    C    0.56914   0.39450   0.12248   1.000
    C151    C    0.56914   0.89451   0.12248   1.000
    C152    C    0.06248   0.21742   0.25000   1.000
    C153    C    0.06248   0.71742   0.25000   1.000
    C154    C    0.56248   0.21742   0.25000   1.000
    C155    C    0.56248   0.71742   0.25000   1.000
    C156    C    0.43755   0.28260   0.75000   1.000
    C157    C    0.43755   0.78260   0.75000   1.000
    C158    C    0.93755   0.28260   0.75000   1.000
    C159    C    0.93755   0.78260   0.75000   1.000
    C160    C    0.34525   0.28332   0.25000   1.000
    C161    C    0.34525   0.78333   0.25000   1.000
    C162    C    0.84525   0.28332   0.25000   1.000
    C163    C    0.84525   0.78333   0.25000   1.000
    C164    C    0.15477   0.21669   0.75000   1.000
    C165    C    0.15478   0.71670   0.75000   1.000
    C166    C    0.65477   0.21669   0.75000   1.000
    C167    C    0.65477   0.71670   0.75000   1.000
    C168    C    0.13589   0.05517   0.83840   1.000
    C169    C    0.13589   0.55518   0.83840   1.000
    C170    C    0.63589   0.05517   0.83840   1.000
    C171    C    0.63589   0.55518   0.83840   1.000
    C172    C    0.08087   0.44412   0.66162   1.000
    C173    C    0.08087   0.94413   0.66162   1.000
    C174    C    0.58088   0.44412   0.66162   1.000
    C175    C    0.58088   0.94413   0.66162   1.000
    C176    C    0.13588   0.05517   0.66160   1.000
    C177    C    0.13589   0.55518   0.66160   1.000
    C178    C    0.63589   0.05517   0.66160   1.000
    C179    C    0.63589   0.55518   0.66160   1.000
    C180    C    0.08087   0.44412   0.83838   1.000
    C181    C    0.08087   0.94414   0.83838   1.000
    C182    C    0.58088   0.44413   0.83838   1.000
    C183    C    0.58088   0.94413   0.83838   1.000
    C184    C    0.50135   0.99949   0.75000   1.000
    C185    C    0.50136   0.49950   0.75000   1.000
    C186    C    0.00000   0.99949   0.75000   1.000
    C187    C    0.00000   0.49950   0.75000   1.000
    C188    C    0.21717   0.99983   0.75000   1.000
    C189    C    0.21717   0.49983   0.75000   1.000
    C190    C    0.71717   0.99983   0.75000   1.000
    C191    C    0.71717   0.49983   0.75000   1.000
    C192    C    0.36414   0.44484   0.33840   1.000
    C193    C    0.36414   0.94485   0.33840   1.000
    C194    C    0.86414   0.44484   0.33840   1.000
    C195    C    0.86414   0.94485   0.33840   1.000
    C196    C    0.41915   0.05589   0.16162   1.000
    C197    C    0.41915   0.55590   0.16162   1.000
    C198    C    0.91915   0.05589   0.16162   1.000
    C199    C    0.91915   0.55589   0.16162   1.000
    C200    C    0.36413   0.44484   0.16160   1.000
    C201    C    0.36414   0.94485   0.16160   1.000
    C202    C    0.86414   0.44484   0.16160   1.000
    C203    C    0.86414   0.94485   0.16160   1.000
    C204    C    0.41915   0.05589   0.33838   1.000
    C205    C    0.41915   0.55590   0.33838   1.000
    C206    C    0.91915   0.05589   0.33838   1.000
    C207    C    0.91915   0.55589   0.33838   1.000
    C208    C    0.99867   0.00052   0.25000   1.000
    C209    C    0.99867   0.50052   0.25000   1.000
    C210    C    0.49867   0.00051   0.25000   1.000
    C211    C    0.49867   0.50052   0.25000   1.000
    C212    C    0.28285   0.00018   0.25000   1.000
    C213    C    0.28285   0.50018   0.25000   1.000
    C214    C    0.78285   0.00018   0.25000   1.000
    C215    C    0.78285   0.50018   0.25000   1.000
    N216    N    0.19714   0.07424   0.06820   1.000
    N217    N    0.19714   0.57425   0.06820   1.000
    N218    N    0.69714   0.07424   0.06822   1.000
    N219    N    0.69714   0.57425   0.06822   1.000
    N220    N    0.30288   0.42577   0.56822   1.000
    N221    N    0.30288   0.92578   0.56822   1.000
    N222    N    0.80288   0.42577   0.56822   1.000
    N223    N    0.80288   0.92578   0.56822   1.000
    N224    N    0.12317   0.42618   0.43156   1.000
    N225    N    0.12317   0.92619   0.43156   1.000
    N226    N    0.62317   0.42618   0.43156   1.000
    N227    N    0.62317   0.92619   0.43156   1.000
    N228    N    0.37685   0.07383   0.93157   1.000
    N229    N    0.37685   0.57384   0.93157   1.000
    N230    N    0.87685   0.07383   0.93157   1.000
    N231    N    0.87685   0.57384   0.93157   1.000
    N232    N    0.30288   0.42578   0.93170   1.000
    N233    N    0.30288   0.92578   0.93170   1.000
    N234    N    0.80288   0.42578   0.93179   1.000
    N235    N    0.80288   0.92578   0.93179   1.000
    N236    N    0.19714   0.07424   0.43178   1.000
    N237    N    0.19714   0.57425   0.43178   1.000
    N238    N    0.69714   0.07424   0.43178   1.000
    N239    N    0.69714   0.57425   0.43178   1.000
    N240    N    0.37685   0.07383   0.56844   1.000
    N241    N    0.37685   0.57384   0.56844   1.000
    N242    N    0.87685   0.07383   0.56844   1.000
    N243    N    0.87685   0.57384   0.56844   1.000
    N244    N    0.12317   0.42618   0.06843   1.000
    N245    N    0.12317   0.92618   0.06843   1.000
    N246    N    0.62317   0.42618   0.06843   1.000
    N247    N    0.62317   0.92618   0.06843   1.000
    N248    N    0.03421   0.25805   0.20000   1.000
    N249    N    0.03421   0.75806   0.20000   1.000
    N250    N    0.53421   0.25805   0.20000   1.000
    N251    N    0.53421   0.75806   0.20000   1.000
    N252    N    0.46581   0.24196   0.75000   1.000
    N253    N    0.46581   0.74197   0.75000   1.000
    N254    N    0.96581   0.24196   0.75000   1.000
    N255    N    0.96581   0.74197   0.75000   1.000
    N256    N    0.27667   0.24252   0.25000   1.000
    N257    N    0.27666   0.74253   0.25000   1.000
    N258    N    0.77666   0.24252   0.25000   1.000
    N259    N    0.77666   0.74253   0.25000   1.000
    N260    N    0.22336   0.25749   0.75000   1.000
    N261    N    0.22336   0.75750   0.75000   1.000
    N262    N    0.72336   0.25749   0.75000   1.000
    N263    N    0.72336   0.75750   0.75000   1.000
    N264    N    0.16411   0.99974   0.84105   1.000
    N265    N    0.16411   0.49975   0.84105   1.000
    N266    N    0.66411   0.99974   0.84105   1.000
    N267    N    0.66411   0.49975   0.84105   1.000
    N268    N    0.16411   0.99974   0.65895   1.000
    N269    N    0.16410   0.49975   0.65895   1.000
    N270    N    0.66411   0.99974   0.65895   1.000
    N271    N    0.66411   0.49975   0.65895   1.000
    N272    N    0.08183   0.05564   0.75000   1.000
    N273    N    0.08183   0.55565   0.75000   1.000
    N274    N    0.58183   0.05564   0.75000   1.000
    N275    N    0.58183   0.55565   0.75000   1.000
    N276    N    0.02626   0.44351   0.75000   1.000
    N277    N    0.02626   0.94351   0.75000   1.000
    N278    N    0.52626   0.44351   0.75000   1.000
    N279    N    0.52626   0.94351   0.75000   1.000
    N280    N    0.33592   0.00026   0.34105   1.000
    N281    N    0.33592   0.50027   0.34105   1.000
    N282    N    0.83592   0.00026   0.34100   1.000
    N283    N    0.83592   0.50027   0.34100   1.000
    N284    N    0.33592   0.00026   0.15895   1.000
    N285    N    0.33592   0.50027   0.15895   1.000
    N286    N    0.83592   0.00026   0.15895   1.000
    N287    N    0.83592   0.50027   0.15895   1.000
    N288    N    0.41819   0.44437   0.25000   1.000
    N289    N    0.41819   0.94438   0.25000   1.000
    N290    N    0.91819   0.44437   0.25000   1.000
    N291    N    0.91819   0.94438   0.25000   1.000
    N292    N    0.47376   0.05651   0.25000   1.000
    N293    N    0.47376   0.55651   0.25000   1.000
    N294    N    0.97376   0.05651   0.25000   1.000
    N295    N    0.97376   0.55652   0.25000   1.000
loop_
    _geom_bond_atom_site_label_1
    _geom_bond_atom_site_label_2
    _geom_bond_distance
    _geom_bond_site_symmetry_2
    _ccdc_geom_bond_type
    Cd19   N219      2.33921      .   S
    Cd19   N246      2.33598      .   S
    Cd19   N287      2.53981      .   S
    Cd19   N267      2.53980  1_554   S
    Cd19   N231      2.33605  1_554   S
    Cd19   N234      2.33911  1_554   S
    Cd18   N218      2.33921  1_565   S
    Cd18   N247      2.33579      .   S
    Cd18   N286      2.53981  1_565   S
    Cd18   N266      2.53980  1_554   S
    Cd18   N230      2.33604  1_564   S
    Cd18   N235      2.33877  1_554   S
    N217   C121      1.17243      .   S
    N217   Cd17      2.33915  1_554   S
    N216   C120      1.17241      .   S
    N216   Cd16      2.33918  1_544   S
    N218   C122      1.17226      .   S
    N219   C123      1.17225      .   S
    N244   C148      1.17224      .   S
    N244   Cd17      2.33602  1_554   S
    N247   C151      1.17223      .   S
    N245   C149      1.17222      .   S
    N245   Cd16      2.33585  1_554   S
    N246   C150      1.17223      .   S
    H88    C200      1.09719      .   S
    H91    C203      1.09696      .   S
    H90    C202      1.09695      .   S
    H89    C201      1.09695      .   S
    H83    C199      1.09681      .   S
    H82    C198      1.09682      .   S
    H81    C197      1.09683      .   S
    H80    C196      1.09681      .   S
    C123   Cd3       2.24190      .   S
    C122   Cd2       2.24190      .   S
    C121   Cd1       2.24190      .   S
    C120   Cd0       2.24190      .   S
    C151   Cd9       2.24134      .   S
    C148   Cd10      1.77375  1_455   S
    C149   Cd11      2.24136  1_455   S
    C150   Cd8       2.24134      .   S
    N284   C201      1.49426  1_545   S
    N284   C196      1.49498      .   S
    N284   C212      1.48828      .   S
    N284   Cd16      2.53991  1_544   S
    N285   C200      1.49464      .   S
    N285   C197      1.49497      .   S
    N285   C213      1.48830      .   S
    N285   Cd17      2.53992  1_554   S
    N286   C203      1.49427  1_545   S
    N286   C198      1.49497      .   S
    N286   C214      1.48830      .   S
    N287   C202      1.49464      .   S
    N287   C199      1.49497      .   S
    N287   C215      1.48829      .   S
    H94    C202      1.09838      .   S
    H95    C203      1.09836      .   S
    H92    C200      1.09837      .   S
    H93    C201      1.09838      .   S
    H84    C196      1.09842      .   S
    H87    C199      1.09843      .   S
    H85    C197      1.09841      .   S
    H86    C198      1.09842      .   S
    C200   N288      1.47029      .   S
    C203   N291      1.47028      .   S
    C202   N290      1.47027      .   S
    C201   N289      1.47028      .   S
    C199   N295      1.47022      .   S
    C196   N292      1.47022      .   S
    C197   N293      1.47023      .   S
    C198   N294      1.47023      .   S
    H111   C211      1.09732      .   S
    H110   C210      1.09736      .   S
    H109   C209      1.09738  1_455   S
    H108   C208      1.09735  1_455   S
    N251   Cd9       2.45507      .   S
    N251   C155      1.35122      .   S
    Cd10   N248      2.36004  1_655   S
    Cd10   C162      2.28710      .   S
    N250   Cd8       2.45505      .   S
    N250   C154      1.35122      .   S
    N249   Cd11      2.45508  1_455   S
    N249   C153      1.35122      .   S
    N248   C152      1.35121      .   S
    Cd8    C160      2.18467      .   S
    Cd8    C130      2.24143      .   S
    Cd9    C161      2.18469      .   S
    Cd9    C131      2.24142      .   S
    Cd11   C163      2.18467      .   S
    Cd11   C129      2.24144  1_655   S
    N259   C163      1.16955      .   S
    N259   Cd3       2.35922      .   S
    H113   C213      1.09632      .   S
    H112   C212      1.09632      .   S
    N256   Cd0       2.35922      .   S
    N256   C160      1.16955      .   S
    N257   C161      1.16954      .   S
    N257   Cd1       2.35922      .   S
    N258   C162      1.16955      .   S
    N258   Cd2       2.35922      .   S
    H116   C213      1.09633      .   S
    N288   C211      1.47682      .   S
    N288   C192      1.47029      .   S
    N289   C210      1.47658  1_565   S
    N289   C193      1.47028      .   S
    N290   C209      1.47683      .   S
    N290   C194      1.47027      .   S
    N291   C208      1.47661  1_565   S
    N291   C195      1.47028      .   S
    N292   C210      1.47673      .   S
    N292   C204      1.47022      .   S
    N293   C211      1.47672      .   S
    N293   C205      1.47023      .   S
    N294   C208      1.47672      .   S
    N294   C206      1.47022      .   S
    Cd0    C152      2.18453      .   S
    Cd0    C140      2.24191      .   S
    C153   Cd1       2.18451      .   S
    N295   C209      1.47673      .   S
    N295   C207      1.47022      .   S
    C209   H105      1.09727  1_655   S
    C210   H106      1.09726      .   S
    C211   H107      1.09732      .   S
    C155   Cd3       2.18453      .   S
    C154   Cd2       2.18454      .   S
    H114   C214      1.09633      .   S
    C212   H117      1.09611  1_545   S
    C212   N280      1.48829      .   S
    C213   N281      1.48830      .   S
    C214   H119      1.09610  1_545   S
    C214   N282      1.48774      .   S
    C215   H118      1.09633      .   S
    C215   H115      1.09634      .   S
    C215   N283      1.48773      .   S
    C208   H104      1.09702  1_655   S
    Cd1    C141      2.24193      .   S
    Cd2    C142      2.24192      .   S
    Cd3    C143      2.24191      .   S
    C207   H103      1.09841      .   S
    C207   N283      1.49496      .   S
    C207   H99       1.09681      .   S
    C206   H102      1.09841      .   S
    C206   N282      1.49497      .   S
    C206   H98       1.09682      .   S
    C205   H101      1.09841      .   S
    C205   N281      1.49498      .   S
    C205   H97       1.09683      .   S
    C204   H100      1.09840      .   S
    C204   N280      1.49498      .   S
    C204   H96       1.09681      .   S
    C195   H79       1.09838      .   S
    C195   N282      1.49422  1_565   S
    C195   H75       1.09685      .   S
    C194   H78       1.09839      .   S
    C194   N283      1.49460      .   S
    C194   H74       1.09685      .   S
    C193   H77       1.09838      .   S
    C193   N280      1.49425  1_565   S
    C193   H73       1.09685      .   S
    C192   H76       1.09838      .   S
    C192   N281      1.49463      .   S
    C192   H72       1.09686      .   S
    N282   Cd22      2.54039      .   S
    N283   Cd23      2.54038      .   S
    N281   Cd21      2.53981      .   S
    N280   Cd20      2.53980      .   S
    C131   N227      1.17222      .   S
    C128   N224      1.17222      .   S
    C129   N225      1.17222      .   S
    C130   N226      1.17222      .   S
    C140   N236      1.17226      .   S
    C141   N237      1.17226      .   S
    C142   N238      1.17227      .   S
    C143   N239      1.17227      .   S
    N224   Cd21      2.33601      .   S
    N225   Cd20      2.33582  1_565   S
    N226   Cd23      2.33600      .   S
    N227   Cd22      2.33582  1_565   S
    N236   Cd20      2.33924      .   S
    N237   Cd21      2.33922      .   S
    N238   Cd22      2.33923      .   S
    N239   Cd23      2.33923      .   S
    Cd23   N222      2.33924      .   S
    Cd23   N243      2.33602      .   S
    Cd23   N271      2.53979      .   S
    Cd22   N223      2.33891  1_545   S
    Cd22   N242      2.33601      .   S
    Cd22   N270      2.53981  1_545   S
    Cd21   N220      2.33925      .   S
    Cd21   N241      2.33601      .   S
    Cd21   N269      2.53982      .   S
    Cd20   N221      2.33890  1_545   S
    Cd20   N240      2.33601      .   S
    Cd20   N268      2.53981  1_545   S
    N220   C124      1.17224      .   S
    N221   C125      1.17226      .   S
    N222   C126      1.17225      .   S
    N223   C127      1.17225      .   S
    N241   C145      1.17222      .   S
    N243   C147      1.17222      .   S
    N242   C146      1.17146      .   S
    N240   C144      1.17223      .   S
    H35    C175      1.09682      .   S
    H32    C172      1.09682      .   S
    H33    C173      1.09681      .   S
    H34    C174      1.09681      .   S
    H40    C176      1.09685      .   S
    H41    C177      1.09685      .   S
    H42    C178      1.09686      .   S
    H43    C179      1.09685      .   S
    C146   Cd12      2.24228  1_655   S
    C127   Cd7       2.24190      .   S
    C124   Cd4       2.24191      .   S
    C125   Cd5       2.24191      .   S
    C126   Cd6       2.24190      .   S
    C147   Cd13      2.24134  1_655   S
    C144   Cd14      2.24133      .   S
    C145   Cd15      2.24133      .   S
    N271   C179      1.49462      .   S
    N271   C174      1.49498      .   S
    N271   C191      1.48828      .   S
    N270   C178      1.49461  1_565   S
    N270   C175      1.49474      .   S
    N270   C190      1.48830      .   S
    N269   C177      1.49464      .   S
    N269   C172      1.49498      .   S
    N269   C189      1.48830      .   S
    N268   C176      1.49464  1_565   S
    N268   C173      1.49474      .   S
    N268   C188      1.48829      .   S
    H44    C176      1.09838      .   S
    H47    C179      1.09838      .   S
    H46    C178      1.09838      .   S
    H45    C177      1.09837      .   S
    H36    C172      1.09840      .   S
    H37    C173      1.09841      .   S
    H38    C174      1.09841      .   S
    H39    C175      1.09841      .   S
    C179   N275      1.47029      .   S
    C178   N274      1.47029      .   S
    C177   N273      1.47028      .   S
    C176   N272      1.47028      .   S
    C173   N277      1.47022      .   S
    C175   N279      1.47023      .   S
    C174   N278      1.47022      .   S
    C172   N276      1.47023      .   S
    H60    C184      1.09733      .   S
    H63    C187      1.08510  1_655   S
    H62    C186      1.08501  1_655   S
    H61    C185      1.09725      .   S
    H71    C191      1.09634      .   S
    N253   Cd15      2.36002      .   S
    N253   C157      1.16956      .   S
    Cd15   C167      2.18467      .   S
    Cd15   C133      2.24145      .   S
    Cd14   N252      2.35999      .   S
    Cd14   C166      2.18466      .   S
    Cd14   C132      2.24145      .   S
    Cd13   N255      2.36001  1_455   S
    Cd13   C165      2.18467      .   S
    Cd13   C135      2.24145  1_455   S
    Cd12   N254      2.36004  1_455   S
    Cd12   C164      2.18468      .   S
    Cd12   C134      2.24146  1_455   S
    Cd7    N263      2.35922      .   S
    Cd7    C159      2.18451      .   S
    Cd7    C139      2.24189      .   S
    Cd6    N262      2.35921      .   S
    Cd6    C158      2.18453      .   S
    Cd6    C138      2.24189      .   S
    Cd5    N261      2.35922      .   S
    Cd5    C157      2.18451      .   S
    Cd5    C137      2.24190      .   S
    N277   C186      1.48843      .   S
    N277   C181      1.47021      .   S
    N276   C187      1.48880      .   S
    N276   C180      1.47023      .   S
    N275   C185      1.47682      .   S
    N275   C171      1.47028      .   S
    N274   C184      1.47682  1_545   S
    N274   C170      1.47028      .   S
    N273   C187      1.48884      .   S
    N273   C169      1.47028      .   S
    N272   C186      1.48885  1_545   S
    N272   C168      1.47028      .   S
    N263   C167      1.16955      .   S
    N262   C166      1.16955      .   S
    N261   C165      1.16955      .   S
    N260   C164      1.16955      .   S
    N260   Cd4       2.35922      .   S
    H70    C190      1.09633  1_545   S
    N278   C185      1.47671      .   S
    N278   C182      1.47022      .   S
    N255   C159      1.16957      .   S
    N254   C158      1.16954      .   S
    N252   C156      1.16956      .   S
    N279   C184      1.47633      .   S
    N279   C183      1.47022      .   S
    H68    C188      1.09634  1_545   S
    H69    C189      1.09633      .   S
    C189   H64       1.09632      .   S
    C189   N265      1.48830      .   S
    H65    C188      1.09595      .   S
    H66    C191      1.09635      .   S
    H67    C190      1.09596      .   S
    Cd4    C156      2.18452      .   S
    Cd4    C136      2.24190      .   S
    C191   N267      1.48828      .   S
    C190   N266      1.48829      .   S
    C188   N264      1.48828      .   S
    C187   H59       1.08510  1_455   S
    C186   H58       1.08512  1_455   S
    C185   H57       1.09736      .   S
    C184   H56       1.09733      .   S
    C180   H52       1.09843      .   S
    C180   N265      1.49498      .   S
    C180   H48       1.09683      .   S
    C181   H53       1.09841      .   S
    C181   N264      1.49474      .   S
    C181   H49       1.09680      .   S
    C182   H54       1.09841      .   S
    C182   N267      1.49498      .   S
    C182   H50       1.09680      .   S
    C183   H55       1.09842      .   S
    C183   N266      1.49475      .   S
    C183   H51       1.09681      .   S
    C168   H28       1.09839      .   S
    C168   N264      1.49463  1_545   S
    C168   H24       1.09695      .   S
    C169   H29       1.09839      .   S
    C169   N265      1.49462      .   S
    C169   H25       1.09608      .   S
    C170   H30       1.09839      .   S
    C170   N266      1.49462  1_545   S
    C170   H26       1.09607      .   S
    C171   H31       1.09838      .   S
    C171   N267      1.49462      .   S
    C171   H27       1.09695      .   S
    N264   Cd16      2.53969      .   S
    N265   Cd17      2.53970      .   S
    C134   N230      1.17223      .   S
    C133   N229      1.17224      .   S
    C135   N231      1.17223      .   S
    C132   N228      1.17224      .   S
    C138   N234      1.17231      .   S
    C136   N232      1.17155      .   S
    C137   N233      1.17157      .   S
    C139   N235      1.17231      .   S
    N229   Cd17      2.33598      .   S
    N228   Cd16      2.33598  1_545   S
    N233   Cd16      2.33919      .   S
    N232   Cd17      2.33954      .   S
