# CIF file generated by openbabel 2.4.90, see http://openbabel.sf.net
data_I
_chemical_name_common ''
_cell_length_a 14.013
_cell_length_b 15.193
_cell_length_c 15.317
_cell_angle_alpha 86.583
_cell_angle_beta 85.391
_cell_angle_gamma 88.005
_space_group_name_H-M_alt 'P 1'
_space_group_name_Hall 'P 1'
loop_
    _symmetry_equiv_pos_as_xyz
    x,y,z
loop_
    _atom_site_label
    _atom_site_type_symbol
    _atom_site_fract_x
    _atom_site_fract_y
    _atom_site_fract_z
    _atom_site_occupancy
    H0      H    0.20346   0.64281   0.98409   1.000
    H1      H    0.06069   0.58498   0.71132   1.000
    H2      H    0.23835   0.59077   0.70812   1.000
    H3      H    0.02815   0.63007   0.97615   1.000
    H4      H    0.62734   0.60662   0.30211   1.000
    H5      H    0.62517   0.60573   0.13933   1.000
    H6      H    0.93198   0.61673   0.12114   1.000
    H7      H    0.65089   0.65676   0.58257   1.000
    H8      H    0.64083   0.66159   0.42199   1.000
    H9      H    0.93652   0.57428   0.38798   1.000
    H10     H    0.94551   0.57040   0.55089   1.000
    H11     H    0.64477   0.31800   0.88210   1.000
    H12     H    0.65200   0.90922   0.87540   1.000
    H13     H    0.94355   0.34360   0.79821   1.000
    H14     H    0.96335   0.18185   0.78835   1.000
    H15     H    0.95071   0.87262   0.79459   1.000
    H16     H    0.96610   0.03743   0.78993   1.000
    H17     H    0.54860   0.66275   0.72153   1.000
    H18     H    0.52274   0.57981   0.98390   1.000
    H19     H    0.34542   0.57222   0.98607   1.000
    H20     H    0.37112   0.66662   0.71275   1.000
    H21     H    0.79643   0.35721   0.01590   1.000
    H22     H    0.93921   0.41498   0.28860   1.000
    H23     H    0.76154   0.40922   0.29187   1.000
    H24     H    0.97173   0.36993   0.02380   1.000
    H25     H    0.37260   0.39343   0.69789   1.000
    H26     H    0.37476   0.39429   0.86060   1.000
    H27     H    0.06796   0.38323   0.87885   1.000
    H28     H    0.34901   0.34329   0.41740   1.000
    H29     H    0.35911   0.33848   0.57798   1.000
    H30     H    0.06341   0.42572   0.61205   1.000
    H31     H    0.05437   0.42958   0.44915   1.000
    H32     H    0.35511   0.68195   0.11783   1.000
    H33     H    0.34792   0.09075   0.12445   1.000
    H34     H    0.05635   0.65639   0.20183   1.000
    H35     H    0.03658   0.81815   0.21172   1.000
    H36     H    0.04925   0.12735   0.20550   1.000
    H37     H    0.03386   0.96255   0.21018   1.000
    H38     H    0.45129   0.33720   0.27840   1.000
    H39     H    0.47712   0.42026   0.01606   1.000
    H40     H    0.65443   0.42784   0.01394   1.000
    H41     H    0.62877   0.33332   0.28723   1.000
    Rh42    Rh   0.62441   0.10990   0.88447   1.000
    Rh43    Rh   0.37551   0.89007   0.11550   1.000
    C44     C    0.23708   0.61713   0.84644   1.000
    C45     C    0.17590   0.62830   0.92228   1.000
    C46     C    0.79343   0.33909   0.84316   1.000
    C47     C    0.09612   0.59750   0.76991   1.000
    C48     C    0.77857   0.61245   0.11755   1.000
    C49     C    0.79831   0.61233   0.57711   1.000
    C50     C    0.19492   0.60208   0.76880   1.000
    C51     C    0.07779   0.62252   0.91850   1.000
    C52     C    0.78108   0.61038   0.01980   1.000
    C53     C    0.78597   0.43698   0.85114   1.000
    C54     C    0.69394   0.61074   0.26044   1.000
    C55     C    0.79019   0.78145   0.83925   1.000
    C56     C    0.69222   0.60965   0.17000   1.000
    C57     C    0.86320   0.61596   0.15998   1.000
    C58     C    0.80212   0.60998   0.67491   1.000
    C59     C    0.34205   0.61957   0.84890   1.000
    C60     C    0.78226   0.61532   0.29751   1.000
    C61     C    0.78778   0.61567   0.39355   1.000
    C62     C    0.71287   0.63778   0.53961   1.000
    C63     C    0.80024   0.87958   0.83533   1.000
    C64     C    0.70760   0.63960   0.44937   1.000
    C65     C    0.87392   0.59135   0.43127   1.000
    C66     C    0.87895   0.58962   0.52176   1.000
    C67     C    0.71369   0.28594   0.86328   1.000
    C68     C    0.72221   0.93601   0.85648   1.000
    C69     C    0.88335   0.30114   0.81607   1.000
    C70     C    0.72324   0.19387   0.85904   1.000
    C71     C    0.81520   0.15646   0.83243   1.000
    C72     C    0.81785   0.06138   0.83069   1.000
    C73     C    0.89366   0.21046   0.81030   1.000
    C74     C    0.88957   0.91633   0.81098   1.000
    C75     C    0.89753   0.00723   0.80860   1.000
    C76     C    0.49992   0.64445   0.77827   1.000
    C77     C    0.48546   0.59742   0.92537   1.000
    C78     C    0.38647   0.59528   0.92616   1.000
    C79     C    0.40135   0.64518   0.77409   1.000
    C80     C    0.76281   0.38287   0.15355   1.000
    C81     C    0.82398   0.37171   0.07771   1.000
    C82     C    0.20645   0.66089   0.15685   1.000
    C83     C    0.90377   0.40248   0.23008   1.000
    C84     C    0.22136   0.38761   0.88240   1.000
    C85     C    0.20157   0.38767   0.42290   1.000
    C86     C    0.80497   0.39792   0.23119   1.000
    C87     C    0.92210   0.37747   0.08149   1.000
    C88     C    0.21884   0.38961   0.98020   1.000
    C89     C    0.21389   0.56300   0.14880   1.000
    C90     C    0.30600   0.38930   0.73955   1.000
    C91     C    0.20975   0.21852   0.16076   1.000
    C92     C    0.30771   0.39037   0.82993   1.000
    C93     C    0.13673   0.38402   0.84001   1.000
    C94     C    0.19772   0.39001   0.32510   1.000
    C95     C    0.65782   0.38043   0.15110   1.000
    C96     C    0.21768   0.38468   0.70249   1.000
    C97     C    0.21216   0.38435   0.60645   1.000
    C98     C    0.28703   0.36225   0.46038   1.000
    C99     C    0.19970   0.12039   0.16468   1.000
    C100    C    0.29233   0.36044   0.55060   1.000
    C101    C    0.12600   0.40866   0.56875   1.000
    C102    C    0.12094   0.41038   0.47820   1.000
    C103    C    0.28620   0.71402   0.13670   1.000
    C104    C    0.27772   0.06397   0.14349   1.000
    C105    C    0.11655   0.69885   0.18396   1.000
    C106    C    0.27667   0.80610   0.14096   1.000
    C107    C    0.18472   0.84351   0.16760   1.000
    C108    C    0.18208   0.93859   0.16933   1.000
    C109    C    0.10626   0.78953   0.18970   1.000
    C110    C    0.11039   0.08364   0.18908   1.000
    C111    C    0.10242   0.99274   0.19144   1.000
    C112    C    0.49996   0.35553   0.22170   1.000
    C113    C    0.51440   0.40263   0.07465   1.000
    C114    C    0.61340   0.40476   0.07385   1.000
    C115    C    0.59854   0.35479   0.22590   1.000
    N116    N    0.03814   0.60713   0.84363   1.000
    N117    N    0.54179   0.62069   0.85269   1.000
    N118    N    0.86616   0.61749   0.24696   1.000
    N119    N    0.72946   0.02477   0.85488   1.000
    N120    N    0.96176   0.39284   0.15636   1.000
    N121    N    0.45807   0.37932   0.14733   1.000
    N122    N    0.13377   0.38247   0.75304   1.000
    N123    N    0.27046   0.97520   0.14509   1.000
    O124    O    0.86209   0.61843   0.97718   1.000
    O125    O    0.72290   0.62532   0.71968   1.000
    O126    O    0.70125   0.60040   0.98729   1.000
    O127    O    0.70375   0.47567   0.85142   1.000
    O128    O    0.88261   0.59302   0.70598   1.000
    O129    O    0.86500   0.47423   0.85880   1.000
    O130    O    0.70763   0.75043   0.85924   1.000
    O131    O    0.86737   0.73699   0.82195   1.000
    O132    O    0.13784   0.38154   0.02281   1.000
    O133    O    0.27692   0.37464   0.28032   1.000
    O134    O    0.29867   0.39956   0.01272   1.000
    O135    O    0.29610   0.52430   0.14857   1.000
    O136    O    0.11724   0.40698   0.29404   1.000
    O137    O    0.13484   0.52576   0.14120   1.000
    O138    O    0.29232   0.24954   0.14076   1.000
    O139    O    0.13258   0.26298   0.17807   1.000
loop_
    _geom_bond_atom_site_label_1
    _geom_bond_atom_site_label_2
    _geom_bond_distance
    _geom_bond_site_symmetry_2
    _ccdc_geom_bond_type
    O134   C88       1.27779  1_554   S
    H40    C114      1.08928      .   S
    H21    C81       1.08786      .   S
    H39    C113      1.08949      .   S
    C52    C48       1.49699      .   S
    C52    O124      1.26914  1_554   S
    C52    O126      1.27781  1_554   S
    O132   C88       1.26907  1_554   S
    H24    C87       1.08878      .   S
    C114   C113      1.38786      .   S
    C114   C95       1.40514      .   S
    C113   N121      1.34868      .   S
    C81    C87       1.38683      .   S
    C81    C80       1.40224      .   S
    C87    N120      1.34970      .   S
    Rh43   C106      1.91697      .   S
    Rh43   N123      1.96851      .   S
    C48    C57       1.40153      .   S
    C48    C56       1.39806      .   S
    H32    C103      1.09204      .   S
    H6     C57       1.09116      .   S
    H33    C104      1.08906      .   S
    C103   C106      1.40558      .   S
    C103   C82       1.40476      .   S
    H5     C56       1.08864      .   S
    O138   C91       1.27215      .   S
    C106   C107      1.42893      .   S
    O137   C89       1.27781      .   S
    C104   N123      1.35460  1_545   S
    C104   C99       1.39505      .   S
    N123   C108      1.38937      .   S
    N121   C112      1.34778      .   S
    O135   C89       1.27483      .   S
    C89    C82       1.49909      .   S
    C95    C80       1.47646      .   S
    C95    C115      1.40392      .   S
    C80    C86       1.40369      .   S
    N120   C83       1.34930      .   S
    C82    C105      1.40926      .   S
    C57    N118      1.33786      .   S
    C91    C99       1.49962      .   S
    C91    O139      1.27296      .   S
    C99    C110      1.40232      .   S
    C107   C108      1.44550      .   S
    C107   C109      1.40223      .   S
    C108   C111      1.39513      .   S
    C56    C54       1.38851      .   S
    C105   C109      1.38738      .   S
    C105   H34       1.08741      .   S
    C110   C111      1.38752  1_545   S
    C110   H36       1.08804      .   S
    C109   H35       1.09144      .   S
    C111   H37       1.08923      .   S
    C112   C115      1.38759      .   S
    C112   H38       1.08911      .   S
    C115   H41       1.08908      .   S
    C83    C86       1.38731      .   S
    C83    H22       1.08833      .   S
    C86    H23       1.08839      .   S
    N118   C60       1.35516      .   S
    C54    C60       1.40801      .   S
    C54    H4        1.08896      .   S
    O133   C94       1.27883      .   S
    O136   C94       1.27125      .   S
    C60    C61       1.47960      .   S
    C94    C85       1.50156      .   S
    H9     C65       1.08977      .   S
    C61    C65       1.40818      .   S
    C61    C64       1.40710      .   S
    H28    C98       1.08805      .   S
    H8     C64       1.08964      .   S
    C85    C98       1.40168      .   S
    C85    C102      1.40257      .   S
    C65    C66       1.39213      .   S
    H31    C102      1.08883      .   S
    C64    C62       1.38868      .   S
    C98    C100      1.38843      .   S
    C102   C101      1.39310      .   S
    C66    H10       1.08927      .   S
    C66    C49       1.40314      .   S
    C62    C49       1.40164      .   S
    C62    H7        1.08801      .   S
    C100   H29       1.08975      .   S
    C100   C97       1.40721      .   S
    C101   C97       1.40818      .   S
    C101   H30       1.08974      .   S
    C49    C58       1.50150      .   S
    C97    C96       1.47959      .   S
    C58    O128      1.27133      .   S
    C58    O125      1.27889      .   S
    H25    C90       1.08890      .   S
    C96    C90       1.40795      .   S
    C96    N122      1.35516      .   S
    H2     C50       1.08843      .   S
    H1     C47       1.08929      .   S
    H20    C79       1.08907      .   S
    H17    C76       1.08955      .   S
    C90    C92       1.38757      .   S
    N122   C93       1.33771      .   S
    C50    C47       1.38726      .   S
    C50    C44       1.40369      .   S
    C47    N116      1.34928      .   S
    C79    C76       1.38747      .   S
    C79    C59       1.40397      .   S
    C76    N117      1.34824      .   S
    H14    C73       1.09125      .   S
    H16    C75       1.08914      .   S
    H15    C74       1.08805      .   S
    H13    C69       1.08743      .   S
    C75    C74       1.38750  1_545   S
    C75    C72       1.39521      .   S
    C73    C69       1.38747      .   S
    C73    C71       1.40234      .   S
    C74    C63       1.40231      .   S
    C69    C46       1.40930      .   S
    O131   C55       1.27295      .   S
    C92    H26       1.08862      .   S
    C92    C84       1.39828      .   S
    C72    C71       1.44553      .   S
    C72    N119      1.38938      .   S
    C71    C70       1.42893      .   S
    C63    C55       1.49965      .   S
    C63    C68       1.39504      .   S
    C55    O130      1.27214      .   S
    C93    H27       1.09115      .   S
    C93    C84       1.40122      .   S
    C46    C53       1.49897      .   S
    C46    C67       1.40470      .   S
    N116   C51       1.34974      .   S
    C44    C59       1.47634      .   S
    C44    C45       1.40227      .   S
    C59    C78       1.40508      .   S
    C53    O127      1.27475      .   S
    C53    O129      1.27794      .   S
    N117   C77       1.34859      .   S
    N119   C68       1.35460  1_545   S
    N119   Rh42      1.96854      .   S
    C68    H12       1.08884      .   S
    C70    C67       1.40553      .   S
    C70    Rh42      1.91694      .   S
    C67    H11       1.09193      .   S
    C84    C88       1.49767      .   S
    C51    C45       1.38680      .   S
    C51    H3        1.08834      .   S
    C45    H0        1.08791      .   S
    C77    C78       1.38780      .   S
    C77    H18       1.08861      .   S
    C78    H19       1.08923      .   S
