# CIF file generated by openbabel 2.4.90, see http://openbabel.sf.net
data_I
_chemical_name_common ''
_cell_length_a 14.013
_cell_length_b 15.193
_cell_length_c 15.317
_cell_angle_alpha 86.583
_cell_angle_beta 85.391
_cell_angle_gamma 88.005
_space_group_name_H-M_alt 'P 1'
_space_group_name_Hall 'P 1'
loop_
    _symmetry_equiv_pos_as_xyz
    x,y,z
loop_
    _atom_site_label
    _atom_site_type_symbol
    _atom_site_fract_x
    _atom_site_fract_y
    _atom_site_fract_z
    _atom_site_occupancy
    N0      N    0.78184   0.61270   0.35024   1.000
    N1      N    0.28978   0.61636   0.84795   1.000
    N2      N    0.81333   0.10961   0.83465   1.000
    N3      N    0.71011   0.38363   0.15204   1.000
    N4      N    0.21807   0.38730   0.64975   1.000
    N5      N    0.18659   0.89036   0.16536   1.000
    Zr6     Zr   0.20954   0.39064   0.15304   1.000
    O7      O    0.37842   0.38682   0.15132   1.000
    O8      O    0.04103   0.38981   0.15396   1.000
    Zr9     Zr   0.79033   0.60934   0.84697   1.000
    O10     O    0.62144   0.61316   0.84869   1.000
    O11     O    0.95885   0.61017   0.84604   1.000
    O12     O    0.79573   0.75121   0.84309   1.000
    O13     O    0.79534   0.46761   0.84491   1.000
    O14     O    0.78976   0.61016   0.70602   1.000
    O15     O    0.78713   0.61019   0.98970   1.000
    O16     O    0.21011   0.38982   0.29399   1.000
    O17     O    0.21276   0.38979   0.01031   1.000
    O18     O    0.20454   0.53237   0.15510   1.000
    O19     O    0.20417   0.24877   0.15692   1.000
loop_
    _geom_bond_atom_site_label_1
    _geom_bond_atom_site_label_2
    _geom_bond_distance
    _geom_bond_site_symmetry_2
    _ccdc_geom_bond_type
    Zr6    O7        2.36335      .   S
    N3     O7        4.64733      .   S
    Zr6    O8        2.36067      .   S
    N3     O8        4.64395  1_655   S
    Zr9    O10       2.36342      .   S
    N1     O10       4.64710      .   S
    Zr9    O11       2.36086      .   S
    N1     O11       4.64393  1_455   S
    Zr9    O12       2.15642      .   S
    N2     O12       5.45284  1_545   S
    Zr9    O13       2.15404      .   S
    N2     O13       5.44713      .   S
    Zr9    O14       2.15889      .   S
    N0     O14       5.45735      .   S
    Zr9    O15       2.18377      .   S
    N0     O15       5.51938  1_554   S
    Zr6    O16       2.15883      .   S
    N4     O16       5.45720      .   S
    Zr6    O17       2.18384      .   S
    N4     O17       5.51953  1_556   S
    Zr6    O18       2.15404      .   S
    N5     O18       5.44712      .   S
    Zr6    O19       2.15641      .   S
    N5     O19       5.45280  1_565   S
