# CIF file generated by openbabel 2.4.90, see http://openbabel.sf.net
data_I
_chemical_name_common ''
_cell_length_a 14.013
_cell_length_b 15.193
_cell_length_c 15.317
_cell_angle_alpha 86.583
_cell_angle_beta 85.391
_cell_angle_gamma 88.005
_space_group_name_H-M_alt 'P 1'
_space_group_name_Hall 'P 1'
loop_
    _symmetry_equiv_pos_as_xyz
    x,y,z
loop_
    _atom_site_label
    _atom_site_type_symbol
    _atom_site_fract_x
    _atom_site_fract_y
    _atom_site_fract_z
    _atom_site_occupancy
    C0      C    0.89180   0.60414   0.84091   1.000
    C1      C    0.68886   0.61454   0.85303   1.000
    C2      C    0.10813   0.39583   0.15909   1.000
    C3      C    0.31095   0.38544   0.14699   1.000
    C4      C    0.20346   0.64281   0.98409   1.000
    C5      C    0.06069   0.58498   0.71132   1.000
    C6      C    0.23835   0.59077   0.70812   1.000
    C7      C    0.02815   0.63007   0.97615   1.000
    C8      C    0.62734   0.60662   0.30211   1.000
    C9      C    0.62517   0.60573   0.13933   1.000
    C10     C    0.93198   0.61673   0.12114   1.000
    C11     C    0.65089   0.65676   0.58257   1.000
    C12     C    0.64083   0.66159   0.42199   1.000
    C13     C    0.93652   0.57428   0.38798   1.000
    C14     C    0.94551   0.57040   0.55089   1.000
    C15     C    0.64477   0.31800   0.88210   1.000
    C16     C    0.65200   0.90922   0.87540   1.000
    C17     C    0.94355   0.34360   0.79821   1.000
    C18     C    0.96335   0.18185   0.78835   1.000
    C19     C    0.95071   0.87262   0.79459   1.000
    C20     C    0.96610   0.03743   0.78993   1.000
    C21     C    0.54860   0.66275   0.72153   1.000
    C22     C    0.52274   0.57981   0.98390   1.000
    C23     C    0.34542   0.57222   0.98607   1.000
    C24     C    0.37112   0.66662   0.71275   1.000
    C25     C    0.79643   0.35721   0.01590   1.000
    C26     C    0.93921   0.41498   0.28860   1.000
    C27     C    0.76154   0.40922   0.29187   1.000
    C28     C    0.97173   0.36993   0.02380   1.000
    C29     C    0.37260   0.39343   0.69789   1.000
    C30     C    0.37476   0.39429   0.86060   1.000
    C31     C    0.06796   0.38323   0.87885   1.000
    C32     C    0.34901   0.34329   0.41740   1.000
    C33     C    0.35911   0.33848   0.57798   1.000
    C34     C    0.06341   0.42572   0.61205   1.000
    C35     C    0.05437   0.42958   0.44915   1.000
    C36     C    0.35511   0.68195   0.11783   1.000
    C37     C    0.34792   0.09075   0.12445   1.000
    C38     C    0.05635   0.65639   0.20183   1.000
    C39     C    0.03658   0.81815   0.21172   1.000
    C40     C    0.04925   0.12735   0.20550   1.000
    C41     C    0.03386   0.96255   0.21018   1.000
    C42     C    0.45129   0.33720   0.27840   1.000
    C43     C    0.47712   0.42026   0.01606   1.000
    C44     C    0.65443   0.42784   0.01394   1.000
    C45     C    0.62877   0.33332   0.28723   1.000
    C46     C    0.62441   0.10990   0.88447   1.000
    C47     C    0.37551   0.89007   0.11550   1.000
    C48     C    0.23708   0.61713   0.84644   1.000
    C49     C    0.17590   0.62830   0.92228   1.000
    C50     C    0.79343   0.33909   0.84316   1.000
    C51     C    0.09612   0.59750   0.76991   1.000
    C52     C    0.77857   0.61245   0.11755   1.000
    C53     C    0.79831   0.61233   0.57711   1.000
    C54     C    0.19492   0.60208   0.76880   1.000
    C55     C    0.07779   0.62252   0.91850   1.000
    C56     C    0.78108   0.61038   0.01980   1.000
    C57     C    0.78597   0.43698   0.85114   1.000
    C58     C    0.69394   0.61074   0.26044   1.000
    C59     C    0.79019   0.78145   0.83925   1.000
    C60     C    0.69222   0.60965   0.17000   1.000
    C61     C    0.86320   0.61596   0.15998   1.000
    C62     C    0.80212   0.60998   0.67491   1.000
    C63     C    0.34205   0.61957   0.84890   1.000
    C64     C    0.78226   0.61532   0.29751   1.000
    C65     C    0.78778   0.61567   0.39355   1.000
    C66     C    0.71287   0.63778   0.53961   1.000
    C67     C    0.80024   0.87958   0.83533   1.000
    C68     C    0.70760   0.63960   0.44937   1.000
    C69     C    0.87392   0.59135   0.43127   1.000
    C70     C    0.87895   0.58962   0.52176   1.000
    C71     C    0.71369   0.28594   0.86328   1.000
    C72     C    0.72221   0.93601   0.85648   1.000
    C73     C    0.88335   0.30114   0.81607   1.000
    C74     C    0.72324   0.19387   0.85904   1.000
    C75     C    0.81520   0.15646   0.83243   1.000
    C76     C    0.81785   0.06138   0.83069   1.000
    C77     C    0.89366   0.21046   0.81030   1.000
    C78     C    0.88957   0.91633   0.81098   1.000
    C79     C    0.89753   0.00723   0.80860   1.000
    C80     C    0.49992   0.64445   0.77827   1.000
    C81     C    0.48546   0.59742   0.92537   1.000
    C82     C    0.38647   0.59528   0.92616   1.000
    C83     C    0.40135   0.64518   0.77409   1.000
    C84     C    0.76281   0.38287   0.15355   1.000
    C85     C    0.82398   0.37171   0.07771   1.000
    C86     C    0.20645   0.66089   0.15685   1.000
    C87     C    0.90377   0.40248   0.23008   1.000
    C88     C    0.22136   0.38761   0.88240   1.000
    C89     C    0.20157   0.38767   0.42290   1.000
    C90     C    0.80497   0.39792   0.23119   1.000
    C91     C    0.92210   0.37747   0.08149   1.000
    C92     C    0.21884   0.38961   0.98020   1.000
    C93     C    0.21389   0.56300   0.14880   1.000
    C94     C    0.30600   0.38930   0.73955   1.000
    C95     C    0.20975   0.21852   0.16076   1.000
    C96     C    0.30771   0.39037   0.82993   1.000
    C97     C    0.13673   0.38402   0.84001   1.000
    C98     C    0.19772   0.39001   0.32510   1.000
    C99     C    0.65782   0.38043   0.15110   1.000
    C100    C    0.21768   0.38468   0.70249   1.000
    C101    C    0.21216   0.38435   0.60645   1.000
    C102    C    0.28703   0.36225   0.46038   1.000
    C103    C    0.19970   0.12039   0.16468   1.000
    C104    C    0.29233   0.36044   0.55060   1.000
    C105    C    0.12600   0.40866   0.56875   1.000
    C106    C    0.12094   0.41038   0.47820   1.000
    C107    C    0.28620   0.71402   0.13670   1.000
    C108    C    0.27772   0.06397   0.14349   1.000
    C109    C    0.11655   0.69885   0.18396   1.000
    C110    C    0.27667   0.80610   0.14096   1.000
    C111    C    0.18472   0.84351   0.16760   1.000
    C112    C    0.18208   0.93859   0.16933   1.000
    C113    C    0.10626   0.78953   0.18970   1.000
    C114    C    0.11039   0.08364   0.18908   1.000
    C115    C    0.10242   0.99274   0.19144   1.000
    C116    C    0.49996   0.35553   0.22170   1.000
    C117    C    0.51440   0.40263   0.07465   1.000
    C118    C    0.61340   0.40476   0.07385   1.000
    C119    C    0.59854   0.35479   0.22590   1.000
    C120    C    0.03814   0.60713   0.84363   1.000
    C121    C    0.54179   0.62069   0.85269   1.000
    C122    C    0.86616   0.61749   0.24696   1.000
    C123    C    0.72946   0.02477   0.85488   1.000
    C124    C    0.96176   0.39284   0.15636   1.000
    C125    C    0.45807   0.37932   0.14733   1.000
    C126    C    0.13377   0.38247   0.75304   1.000
    C127    C    0.27046   0.97520   0.14509   1.000
    C128    C    0.86209   0.61843   0.97718   1.000
    C129    C    0.72290   0.62532   0.71968   1.000
    C130    C    0.70125   0.60040   0.98729   1.000
    C131    C    0.70375   0.47567   0.85142   1.000
    C132    C    0.88261   0.59302   0.70598   1.000
    C133    C    0.86500   0.47423   0.85880   1.000
    C134    C    0.70763   0.75043   0.85924   1.000
    C135    C    0.86737   0.73699   0.82195   1.000
    C136    C    0.13784   0.38154   0.02281   1.000
    C137    C    0.27692   0.37464   0.28032   1.000
    C138    C    0.29867   0.39956   0.01272   1.000
    C139    C    0.29610   0.52430   0.14857   1.000
    C140    C    0.11724   0.40698   0.29404   1.000
    C141    C    0.13484   0.52576   0.14120   1.000
    C142    C    0.29232   0.24954   0.14076   1.000
    C143    C    0.13258   0.26298   0.17807   1.000
    O144    O    0.30481   0.39250   0.07986   1.000
    O145    O    0.25875   0.39459   0.99646   1.000
    O146    O    0.63392   0.41630   0.04390   1.000
    O147    O    0.81021   0.36446   0.04680   1.000
    O148    O    0.49576   0.41144   0.04535   1.000
    O149    O    0.77983   0.61141   0.06868   1.000
    O150    O    0.82159   0.61440   0.99849   1.000
    O151    O    0.74117   0.60539   0.00354   1.000
    O152    O    0.12298   0.38869   0.09095   1.000
    O153    O    0.17834   0.38558   0.00150   1.000
    O154    O    0.94692   0.37370   0.05264   1.000
    O155    O    0.56390   0.40369   0.07425   1.000
    O156    O    0.63561   0.39260   0.11248   1.000
    O157    O    0.48624   0.39097   0.11099   1.000
    O158    O    0.87304   0.37459   0.07960   1.000
    O159    O    0.79340   0.37729   0.11563   1.000
    O160    O    0.94193   0.38515   0.11893   1.000
    O161    O    0.32609   0.84808   0.12823   1.000
    O162    O    0.32299   0.93263   0.13029   1.000
    O163    O    0.82088   0.61421   0.13877   1.000
    O164    O    0.73539   0.61105   0.14378   1.000
    O165    O    0.32066   0.69799   0.12726   1.000
    O166    O    0.89759   0.61635   0.14056   1.000
    O167    O    0.31282   0.07736   0.13397   1.000
    O168    O    0.28144   0.76006   0.13883   1.000
    O169    O    0.24633   0.68746   0.14677   1.000
    O170    O    0.65870   0.60769   0.15467   1.000
    O171    O    0.30163   0.31749   0.14388   1.000
    O172    O    0.25104   0.23403   0.15076   1.000
    O173    O    0.23070   0.82481   0.15428   1.000
    O174    O    0.17437   0.54438   0.14500   1.000
    O175    O    0.12148   0.46080   0.15014   1.000
    O176    O    0.27409   0.01958   0.14429   1.000
    O177    O    0.23871   0.09218   0.15409   1.000
    O178    O    0.22627   0.95690   0.15721   1.000
    O179    O    0.38451   0.38238   0.14716   1.000
    O180    O    0.30353   0.45487   0.14778   1.000
    O181    O    0.29394   0.38004   0.21366   1.000
    O182    O    0.47902   0.36742   0.18451   1.000
    O183    O    0.25500   0.54365   0.14869   1.000
    O184    O    0.21017   0.61194   0.15282   1.000
    O185    O    0.71032   0.38165   0.15233   1.000
    O186    O    0.62818   0.36761   0.18850   1.000
    O187    O    0.78389   0.39039   0.19237   1.000
    O188    O    0.03494   0.39433   0.15773   1.000
    O189    O    0.93277   0.39766   0.19322   1.000
    O190    O    0.16150   0.67987   0.17041   1.000
    O191    O    0.12035   0.32941   0.16858   1.000
    O192    O    0.11268   0.40141   0.22657   1.000
    O193    O    0.86468   0.61673   0.20347   1.000
    O194    O    0.20473   0.16946   0.16272   1.000
    O195    O    0.17117   0.24075   0.16941   1.000
    O196    O    0.15505   0.10202   0.17688   1.000
    O197    O    0.18340   0.89105   0.16847   1.000
    O198    O    0.14549   0.81652   0.17865   1.000
    O199    O    0.14225   0.96567   0.18039   1.000
    O200    O    0.69308   0.61020   0.21522   1.000
    O201    O    0.11140   0.74419   0.18683   1.000
    O202    O    0.08645   0.67762   0.19290   1.000
    O203    O    0.10640   0.03819   0.19026   1.000
    O204    O    0.07982   0.10550   0.19729   1.000
    O205    O    0.07142   0.80384   0.20071   1.000
    O206    O    0.06814   0.97765   0.20081   1.000
    O207    O    0.54925   0.35516   0.22380   1.000
    O208    O    0.47563   0.34636   0.25005   1.000
    O209    O    0.61365   0.34405   0.25656   1.000
    O210    O    0.85437   0.40020   0.23064   1.000
    O211    O    0.92149   0.40873   0.25934   1.000
    O212    O    0.78326   0.40357   0.26153   1.000
    O213    O    0.82421   0.61641   0.27224   1.000
    O214    O    0.73810   0.61303   0.27897   1.000
    O215    O    0.66064   0.60868   0.28127   1.000
    O216    O    0.23732   0.38232   0.30271   1.000
    O217    O    0.15748   0.39849   0.30957   1.000
    O218    O    0.78502   0.61549   0.34553   1.000
    O219    O    0.19965   0.38884   0.37400   1.000
    O220    O    0.90522   0.58281   0.40963   1.000
    O221    O    0.83085   0.60351   0.41241   1.000
    O222    O    0.74769   0.62764   0.42146   1.000
    O223    O    0.31802   0.35277   0.43889   1.000
    O224    O    0.67421   0.65060   0.43568   1.000
    O225    O    0.24430   0.37496   0.44164   1.000
    O226    O    0.16126   0.39902   0.45055   1.000
    O227    O    0.87644   0.59048   0.47651   1.000
    O228    O    0.08765   0.41998   0.46368   1.000
    O229    O    0.71023   0.63869   0.49449   1.000
    O230    O    0.28968   0.36135   0.50549   1.000
    O231    O    0.12347   0.40952   0.52348   1.000
    O232    O    0.91223   0.58001   0.53632   1.000
    O233    O    0.83863   0.60097   0.54944   1.000
    O234    O    0.75559   0.62506   0.55836   1.000
    O235    O    0.68188   0.64727   0.56109   1.000
    O236    O    0.32572   0.34946   0.56429   1.000
    O237    O    0.25225   0.37239   0.57853   1.000
    O238    O    0.16908   0.39650   0.58760   1.000
    O239    O    0.09471   0.41719   0.59040   1.000
    O240    O    0.80021   0.61115   0.62601   1.000
    O241    O    0.21492   0.38451   0.65447   1.000
    O242    O    0.84237   0.60150   0.69044   1.000
    O243    O    0.76251   0.61765   0.69729   1.000
    O244    O    0.33929   0.39136   0.71872   1.000
    O245    O    0.26184   0.38699   0.72102   1.000
    O246    O    0.17573   0.38357   0.72776   1.000
    O247    O    0.88721   0.59858   0.77345   1.000
    O248    O    0.21664   0.59642   0.73846   1.000
    O249    O    0.07841   0.59124   0.74062   1.000
    O250    O    0.38624   0.65590   0.74342   1.000
    O251    O    0.70588   0.61993   0.78635   1.000
    O252    O    0.52426   0.65360   0.74990   1.000
    O253    O    0.30685   0.38983   0.78474   1.000
    O254    O    0.13525   0.38324   0.79653   1.000
    O255    O    0.14552   0.59979   0.76936   1.000
    O256    O    0.21600   0.60960   0.80762   1.000
    O257    O    0.06713   0.60232   0.80677   1.000
    O258    O    0.45063   0.64482   0.77618   1.000
    O259    O    0.37170   0.63238   0.81149   1.000
    O260    O    0.52085   0.63257   0.81548   1.000
    O261    O    0.92851   0.19616   0.79932   1.000
    O262    O    0.93182   0.02233   0.79927   1.000
    O263    O    0.92014   0.89448   0.80279   1.000
    O264    O    0.91345   0.32237   0.80714   1.000
    O265    O    0.89355   0.96178   0.80979   1.000
    O266    O    0.85769   0.03431   0.81964   1.000
    O267    O    0.88850   0.25580   0.81318   1.000
    O268    O    0.85443   0.18346   0.82137   1.000
    O269    O    0.84490   0.89796   0.82315   1.000
    O270    O    0.83839   0.32011   0.82961   1.000
    O271    O    0.82878   0.75922   0.83060   1.000
    O272    O    0.87959   0.67057   0.83143   1.000
    O273    O    0.34124   0.39233   0.84526   1.000
    O274    O    0.26454   0.38899   0.85616   1.000
    O275    O    0.81653   0.10892   0.83156   1.000
    O276    O    0.77366   0.04308   0.84279   1.000
    O277    O    0.76922   0.17516   0.84574   1.000
    O278    O    0.79522   0.83052   0.83729   1.000
    O279    O    0.76123   0.90779   0.84591   1.000
    O280    O    0.74891   0.76594   0.84925   1.000
    O281    O    0.10234   0.38362   0.85943   1.000
    O282    O    0.17904   0.38581   0.86120   1.000
    O283    O    0.96497   0.60564   0.84227   1.000
    O284    O    0.87840   0.53919   0.84985   1.000
    O285    O    0.87695   0.61128   0.90905   1.000
    O286    O    0.78970   0.38803   0.84715   1.000
    O287    O    0.75356   0.31252   0.85322   1.000
    O288    O    0.05796   0.61483   0.88107   1.000
    O289    O    0.28957   0.61835   0.84767   1.000
    O290    O    0.20649   0.62272   0.88436   1.000
    O291    O    0.36426   0.60742   0.88753   1.000
    O292    O    0.74486   0.45633   0.85128   1.000
    O293    O    0.82548   0.45561   0.85497   1.000
    O294    O    0.69631   0.54510   0.85222   1.000
    O295    O    0.61533   0.61761   0.85286   1.000
    O296    O    0.51363   0.60905   0.88903   1.000
    O297    O    0.69824   0.68248   0.85613   1.000
    O298    O    0.69506   0.60747   0.92016   1.000
    O299    O    0.72584   0.98039   0.85568   1.000
    O300    O    0.67694   0.06733   0.86967   1.000
    O301    O    0.68711   0.92261   0.86594   1.000
    O302    O    0.71847   0.23991   0.86116   1.000
    O303    O    0.67383   0.15188   0.87175   1.000
    O304    O    0.67923   0.30197   0.87269   1.000
    O305    O    0.22010   0.38861   0.93130   1.000
    O306    O    0.12685   0.62541   0.92039   1.000
    O307    O    0.05297   0.62629   0.94732   1.000
    O308    O    0.18968   0.63555   0.95318   1.000
    O309    O    0.43596   0.59635   0.92576   1.000
    O310    O    0.50410   0.58862   0.95464   1.000
    O311    O    0.36594   0.58375   0.95611   1.000
    O312    O    0.79033   0.60934   0.84697   1.000
    O313    O    0.20954   0.39064   0.15304   1.000
loop_
    _geom_bond_atom_site_label_1
    _geom_bond_atom_site_label_2
    _geom_bond_distance
    _geom_bond_site_symmetry_2
    _ccdc_geom_bond_type
    C138   O144      1.03767      .   S
    C3     O144      1.03767      .   S
    C138   O145      0.63889  1_554   S
    C92    O145      0.63889      .   S
    C44    O146      0.54464      .   S
    C118   O146      0.54464      .   S
    C25    O147      0.54393      .   S
    C85    O147      0.54393      .   S
    C43    O148      0.54475      .   S
    C117   O148      0.54475      .   S
    C56    O149      0.74850      .   S
    C52    O149      0.74850      .   S
    C56    O150      0.63457  1_554   S
    C128   O150      0.63457      .   S
    C56    O151      0.63890      .   S
    C130   O151      0.63890  1_556   S
    C136   O152      1.05899      .   S
    C2     O152      1.05899      .   S
    C136   O153      0.63454      .   S
    C92    O153      0.63454  1_556   S
    C28    O154      0.54439      .   S
    C91    O154      0.54439      .   S
    C118   O155      0.69393      .   S
    C117   O155      0.69393      .   S
    C118   O156      0.70257      .   S
    C99    O156      0.70257      .   S
    C117   O157      0.67434      .   S
    C125   O157      0.67434      .   S
    C85    O158      0.69342      .   S
    C91    O158      0.69342      .   S
    C85    O159      0.70112      .   S
    C84    O159      0.70112      .   S
    C91    O160      0.67485      .   S
    C124   O160      0.67485      .   S
    C47    O161      0.95849      .   S
    C110   O161      0.95849      .   S
    C47    O162      0.98426      .   S
    C127   O162      0.98426      .   S
    C52    O163      0.70077      .   S
    C61    O163      0.70077      .   S
    C52    O164      0.69903      .   S
    C60    O164      0.69903      .   S
    C36    O165      0.54602      .   S
    C107   O165      0.54602      .   S
    C10    O166      0.54558      .   S
    C61    O166      0.54558      .   S
    C37    O167      0.54453      .   S
    C108   O167      0.54453      .   S
    C107   O168      0.70279      .   S
    C110   O168      0.70279      .   S
    C107   O169      0.70238      .   S
    C86    O169      0.70238      .   S
    C9     O170      0.54432      .   S
    C60    O170      0.54432      .   S
    C142   O171      1.04948      .   S
    C3     O171      1.04948      .   S
    C142   O172      0.63607      .   S
    C95    O172      0.63607      .   S
    C110   O173      0.71446      .   S
    C111   O173      0.71446      .   S
    C141   O174      0.63891      .   S
    C93    O174      0.63891      .   S
    C141   O175      1.01025      .   S
    C2     O175      1.01025      .   S
    C108   O176      0.67730      .   S
    C127   O176      0.67730  1_565   S
    C108   O177      0.69752      .   S
    C103   O177      0.69752      .   S
    C127   O178      0.69469      .   S
    C112   O178      0.69469      .   S
    C3     O179      1.03044      .   S
    C125   O179      1.03044      .   S
    C3     O180      1.05705      .   S
    C139   O180      1.05705      .   S
    C3     O181      1.02883      .   S
    C137   O181      1.02883      .   S
    C125   O182      0.67389      .   S
    C116   O182      0.67389      .   S
    C139   O183      0.63741      .   S
    C93    O183      0.63741      .   S
    C93    O184      0.74955      .   S
    C86    O184      0.74955      .   S
    C99    O185      0.73823      .   S
    C84    O185      0.73823      .   S
    C99    O186      0.70196      .   S
    C119   O186      0.70196      .   S
    C84    O187      0.70185      .   S
    C90    O187      0.70185      .   S
    C124   O188      1.02850  1_655   S
    C2     O188      1.02850      .   S
    C124   O189      0.67465      .   S
    C87    O189      0.67465      .   S
    C86    O190      0.70463      .   S
    C109   O190      0.70463      .   S
    C2     O191      1.02147      .   S
    C143   O191      1.02147      .   S
    C2     O192      1.04920      .   S
    C140   O192      1.04920      .   S
    C61    O193      0.66893      .   S
    C122   O193      0.66893      .   S
    C95    O194      0.74981      .   S
    C103   O194      0.74981      .   S
    C95    O195      0.63648      .   S
    C143   O195      0.63648      .   S
    C103   O196      0.70116      .   S
    C114   O196      0.70116      .   S
    C111   O197      0.72275      .   S
    C112   O197      0.72275      .   S
    C111   O198      0.70112      .   S
    C113   O198      0.70112      .   S
    C112   O199      0.69756      .   S
    C115   O199      0.69756      .   S
    C60    O200      0.69426      .   S
    C58    O200      0.69426      .   S
    C109   O201      0.69369      .   S
    C113   O201      0.69369      .   S
    C109   O202      0.54371      .   S
    C38    O202      0.54371      .   S
    C114   O203      0.69376      .   S
    C115   O203      0.69376  1_565   S
    C114   O204      0.54402      .   S
    C40    O204      0.54402      .   S
    C113   O205      0.54572      .   S
    C39    O205      0.54572      .   S
    C115   O206      0.54461      .   S
    C41    O206      0.54461      .   S
    C116   O207      0.69380      .   S
    C119   O207      0.69380      .   S
    C116   O208      0.54456      .   S
    C42    O208      0.54456      .   S
    C119   O209      0.54454      .   S
    C45    O209      0.54454      .   S
    C87    O210      0.69366      .   S
    C90    O210      0.69366      .   S
    C87    O211      0.54416      .   S
    C26    O211      0.54416      .   S
    C90    O212      0.54420      .   S
    C27    O212      0.54420      .   S
    C122   O213      0.67758      .   S
    C64    O213      0.67758      .   S
    C58    O214      0.70401      .   S
    C64    O214      0.70401      .   S
    C58    O215      0.54448      .   S
    C8     O215      0.54448      .   S
    C137   O216      0.63942      .   S
    C98    O216      0.63942      .   S
    C140   O217      0.63562      .   S
    C98    O217      0.63562      .   S
    C64    O218      0.73980      .   S
    C65    O218      0.73980      .   S
    C98    O219      0.75078      .   S
    C89    O219      0.75078      .   S
    C13    O220      0.54489      .   S
    C69    O220      0.54489      .   S
    C65    O221      0.70409      .   S
    C69    O221      0.70409      .   S
    C65    O222      0.70355      .   S
    C68    O222      0.70355      .   S
    C32    O223      0.54402      .   S
    C102   O223      0.54402      .   S
    C12    O224      0.54482      .   S
    C68    O224      0.54482      .   S
    C89    O225      0.70084      .   S
    C102   O225      0.70084      .   S
    C89    O226      0.70129      .   S
    C106   O226      0.70129      .   S
    C69    O227      0.69606      .   S
    C70    O227      0.69606      .   S
    C35    O228      0.54441      .   S
    C106   O228      0.54441      .   S
    C68    O229      0.69434      .   S
    C66    O229      0.69434      .   S
    C102   O230      0.69421      .   S
    C104   O230      0.69421      .   S
    C106   O231      0.69655      .   S
    C105   O231      0.69655      .   S
    C70    O232      0.54464      .   S
    C14    O232      0.54464      .   S
    C70    O233      0.70157      .   S
    C53    O233      0.70157      .   S
    C66    O234      0.70082      .   S
    C53    O234      0.70082      .   S
    C66    O235      0.54400      .   S
    C11    O235      0.54400      .   S
    C104   O236      0.54488      .   S
    C33    O236      0.54488      .   S
    C104   O237      0.70361      .   S
    C101   O237      0.70361      .   S
    C105   O238      0.70409      .   S
    C101   O238      0.70409      .   S
    C105   O239      0.54487      .   S
    C34    O239      0.54487      .   S
    C53    O240      0.75075      .   S
    C62    O240      0.75075      .   S
    C101   O241      0.73980      .   S
    C100   O241      0.73980      .   S
    C62    O242      0.63566      .   S
    C132   O242      0.63566      .   S
    C62    O243      0.63945      .   S
    C129   O243      0.63945      .   S
    C29    O244      0.54445      .   S
    C94    O244      0.54445      .   S
    C100   O245      0.70398      .   S
    C94    O245      0.70398      .   S
    C100   O246      0.67758      .   S
    C126   O246      0.67758      .   S
    C132   O247      1.04911      .   S
    C0     O247      1.04911      .   S
    C6     O248      0.54422      .   S
    C54    O248      0.54422      .   S
    C5     O249      0.54465      .   S
    C51    O249      0.54465      .   S
    C24    O250      0.54454      .   S
    C83    O250      0.54454      .   S
    C129   O251      1.02899      .   S
    C1     O251      1.02899      .   S
    C21    O252      0.54478      .   S
    C80    O252      0.54478      .   S
    C94    O253      0.69378      .   S
    C96    O253      0.69378      .   S
    C126   O254      0.66886      .   S
    C97    O254      0.66886      .   S
    C54    O255      0.69363      .   S
    C51    O255      0.69363      .   S
    C54    O256      0.70185      .   S
    C48    O256      0.70185      .   S
    C51    O257      0.67464      .   S
    C120   O257      0.67464      .   S
    C83    O258      0.69374      .   S
    C80    O258      0.69374      .   S
    C83    O259      0.70199      .   S
    C63    O259      0.70199      .   S
    C80    O260      0.67412      .   S
    C121   O260      0.67412      .   S
    C18    O261      0.54563      .   S
    C77    O261      0.54563      .   S
    C20    O262      0.54457      .   S
    C79    O262      0.54457      .   S
    C19    O263      0.54402      .   S
    C78    O263      0.54402      .   S
    C17    O264      0.54371      .   S
    C73    O264      0.54371      .   S
    C79    O265      0.69375  1_545   S
    C78    O265      0.69375      .   S
    C79    O266      0.69760      .   S
    C76    O266      0.69760      .   S
    C77    O267      0.69373      .   S
    C73    O267      0.69373      .   S
    C77    O268      0.70117      .   S
    C75    O268      0.70117      .   S
    C78    O269      0.70116      .   S
    C67    O269      0.70116      .   S
    C73    O270      0.70465      .   S
    C50    O270      0.70465      .   S
    C135   O271      0.63647      .   S
    C59    O271      0.63647      .   S
    C135   O272      1.02146      .   S
    C0     O272      1.02146      .   S
    C96    O273      0.54431      .   S
    C30    O273      0.54431      .   S
    C96    O274      0.69914      .   S
    C88    O274      0.69914      .   S
    C76    O275      0.72276      .   S
    C75    O275      0.72276      .   S
    C76    O276      0.69469      .   S
    C123   O276      0.69469      .   S
    C75    O277      0.71447      .   S
    C74    O277      0.71447      .   S
    C67    O278      0.74982      .   S
    C59    O278      0.74982      .   S
    C67    O279      0.69752      .   S
    C72    O279      0.69752      .   S
    C59    O280      0.63607      .   S
    C134   O280      0.63607      .   S
    C97    O281      0.54557      .   S
    C31    O281      0.54557      .   S
    C97    O282      0.70061      .   S
    C88    O282      0.70061      .   S
    C0     O283      1.02826      .   S
    C120   O283      1.02826  1_455   S
    C0     O284      1.01025      .   S
    C133   O284      1.01025      .   S
    C0     O285      1.05890      .   S
    C128   O285      1.05890      .   S
    C50    O286      0.74949      .   S
    C57    O286      0.74949      .   S
    C50    O287      0.70235      .   S
    C71    O287      0.70235      .   S
    C120   O288      0.67487      .   S
    C55    O288      0.67487      .   S
    C48    O289      0.73817      .   S
    C63    O289      0.73817      .   S
    C48    O290      0.70113      .   S
    C49    O290      0.70113      .   S
    C63    O291      0.70254      .   S
    C82    O291      0.70254      .   S
    C57    O292      0.63738      .   S
    C131   O292      0.63738      .   S
    C57    O293      0.63897      .   S
    C133   O293      0.63897      .   S
    C131   O294      1.05715      .   S
    C1     O294      1.05715      .   S
    C121   O295      1.03005      .   S
    C1     O295      1.03005      .   S
    C121   O296      0.67430      .   S
    C81    O296      0.67430      .   S
    C1     O297      1.04954      .   S
    C134   O297      1.04954      .   S
    C1     O298      1.03772      .   S
    C130   O298      1.03772      .   S
    C123   O299      0.67730  1_545   S
    C72    O299      0.67730      .   S
    C123   O300      0.98427      .   S
    C46    O300      0.98427      .   S
    C72    O301      0.54442      .   S
    C16    O301      0.54442      .   S
    C74    O302      0.70277      .   S
    C71    O302      0.70277      .   S
    C74    O303      0.95847      .   S
    C46    O303      0.95847      .   S
    C71    O304      0.54596      .   S
    C15    O304      0.54596      .   S
    C88    O305      0.74884      .   S
    C92    O305      0.74884      .   S
    C55    O306      0.69340      .   S
    C49    O306      0.69340      .   S
    C55    O307      0.54417      .   S
    C7     O307      0.54417      .   S
    C49    O308      0.54395      .   S
    C4     O308      0.54395      .   S
    C81    O309      0.69390      .   S
    C82    O309      0.69390      .   S
    C81    O310      0.54431      .   S
    C22    O310      0.54431      .   S
    C82    O311      0.54462      .   S
    C23    O311      0.54462      .   S
    C0     O312      1.41725      .   S
    C1     O312      1.41725      .   S
    C2     O313      1.41642      .   S
    C3     O313      1.41642      .   S
