# CIF file generated by openbabel 2.4.90, see http://openbabel.sf.net
data_I
_chemical_name_common ''
_cell_length_a 14.013
_cell_length_b 15.193
_cell_length_c 15.317
_cell_angle_alpha 86.583
_cell_angle_beta 85.391
_cell_angle_gamma 88.005
_space_group_name_H-M_alt 'P 1'
_space_group_name_Hall 'P 1'
loop_
    _symmetry_equiv_pos_as_xyz
    x,y,z
loop_
    _atom_site_label
    _atom_site_type_symbol
    _atom_site_fract_x
    _atom_site_fract_y
    _atom_site_fract_z
    _atom_site_occupancy
    N0      N    0.78184   0.61270   0.35024   1.000
    N1      N    0.28978   0.61636   0.84795   1.000
    N2      N    0.81333   0.10961   0.83465   1.000
    N3      N    0.71011   0.38363   0.15204   1.000
    N4      N    0.21807   0.38730   0.64975   1.000
    N5      N    0.18659   0.89036   0.16536   1.000
    Zr6     Zr   0.20954   0.39064   0.15304   1.000
    O7      O    0.22683   0.24728   0.15383   1.000
    O8      O    0.22730   0.53163   0.15480   1.000
    O9      O    0.37842   0.38682   0.15132   1.000
    O10     O    0.23549   0.39027   0.00892   1.000
    O11     O    0.23277   0.38715   0.29237   1.000
    O12     O    0.18179   0.53311   0.15540   1.000
    O13     O    0.04103   0.38981   0.15396   1.000
    O14     O    0.18746   0.39250   0.29560   1.000
    O15     O    0.19003   0.38932   0.01170   1.000
    O16     O    0.18151   0.25026   0.16000   1.000
    Zr17    Zr   0.79033   0.60934   0.84697   1.000
    O18     O    0.62144   0.61316   0.84869   1.000
    O19     O    0.76439   0.60971   0.99108   1.000
    O20     O    0.77306   0.75269   0.84618   1.000
    O21     O    0.77257   0.46835   0.84520   1.000
    O22     O    0.76710   0.61283   0.70763   1.000
    O23     O    0.81243   0.60749   0.70441   1.000
    O24     O    0.81839   0.74972   0.84001   1.000
    O25     O    0.81810   0.46687   0.84461   1.000
    O26     O    0.80986   0.61067   0.98831   1.000
    O27     O    0.95885   0.61017   0.84604   1.000
    Zr28    Zr   0.62441   0.10990   0.88447   1.000
    O29     O    0.68477   0.09918   0.86832   1.000
    O30     O    0.68399   0.12032   0.86884   1.000
    Zr31    Zr   0.37551   0.89007   0.11550   1.000
    O32     O    0.31515   0.90078   0.13166   1.000
    O33     O    0.31592   0.87965   0.13115   1.000
loop_
    _geom_bond_atom_site_label_1
    _geom_bond_atom_site_label_2
    _geom_bond_distance
    _geom_bond_site_symmetry_2
    _ccdc_geom_bond_type
    Zr6    O7        2.18245      .   S
    N5     O7        5.46234  1_565   S
    Zr6    O8        2.16707      .   S
    N5     O8        5.47089      .   S
    Zr6    O9        2.36335      .   S
    N3     O9        4.64733      .   S
    Zr6    O10       2.20850      .   S
    N4     O10       5.52930  1_556   S
    Zr6    O11       2.18183      .   S
    N4     O11       5.46144      .   S
    Zr6    O12       2.18776      .   S
    N5     O12       5.44190      .   S
    Zr6    O13       2.36067      .   S
    N3     O13       4.64395  1_655   S
    Zr6    O14       2.18237      .   S
    N4     O14       5.47144      .   S
    Zr6    O15       2.20520      .   S
    N4     O15       5.52804  1_556   S
    Zr6    O16       2.17686      .   S
    N5     O16       5.46173  1_565   S
    Zr17   O18       2.36342      .   S
    N1     O18       4.64710      .   S
    Zr17   O19       2.20844      .   S
    N0     O19       5.52914  1_554   S
    Zr17   O20       2.18242      .   S
    N2     O20       5.46242  1_545   S
    Zr17   O21       2.16708      .   S
    N2     O21       5.47092      .   S
    Zr17   O22       2.18190      .   S
    N0     O22       5.46161      .   S
    Zr17   O23       2.18244      .   S
    N0     O23       5.47159      .   S
    Zr17   O24       2.17694      .   S
    N2     O24       5.46174  1_545   S
    Zr17   O25       2.18777      .   S
    N2     O25       5.44190      .   S
    Zr17   O26       2.20515      .   S
    N0     O26       5.52791  1_554   S
    Zr17   O27       2.36086      .   S
    N1     O27       4.64393  1_455   S
    Zr28   O29       0.87449      .   S
    N2     O29       1.84314      .   S
    Zr28   O30       0.86726      .   S
    N2     O30       1.84998      .   S
    Zr31   O32       0.87450      .   S
    N5     O32       1.84319      .   S
    Zr31   O33       0.86728      .   S
    N5     O33       1.85003      .   S
