# CIF file generated by openbabel 2.4.90, see http://openbabel.sf.net
data_I
_chemical_name_common ''
_cell_length_a 14.013
_cell_length_b 15.193
_cell_length_c 15.317
_cell_angle_alpha 86.583
_cell_angle_beta 85.391
_cell_angle_gamma 88.005
_space_group_name_H-M_alt 'P 1'
_space_group_name_Hall 'P 1'
loop_
    _symmetry_equiv_pos_as_xyz
    x,y,z
loop_
    _atom_site_label
    _atom_site_type_symbol
    _atom_site_fract_x
    _atom_site_fract_y
    _atom_site_fract_z
    _atom_site_occupancy
    Zr0     Zr   0.89180   0.60414   0.84091   1.000
    Zr1     Zr   0.68886   0.61454   0.85303   1.000
    Zr2     Zr   0.10813   0.39583   0.15909   1.000
    Zr3     Zr   0.31095   0.38544   0.14699   1.000
    Zr4     Zr   0.62441   0.10990   0.88447   1.000
    Zr5     Zr   0.37551   0.89007   0.11550   1.000
    O6      O    0.79033   0.60934   0.84697   1.000
    O7      O    0.20954   0.39064   0.15304   1.000
    N8      N    0.78184   0.61270   0.35024   1.000
    O9      O    0.82940   0.61199   0.12964   1.000
    O10     O    0.74386   0.61632   0.56830   1.000
    O11     O    0.73845   0.61009   0.13520   1.000
    O12     O    0.83452   0.60564   0.56184   1.000
    N13     N    0.28978   0.61636   0.84795   1.000
    O14     O    0.12737   0.61100   0.84511   1.000
    O15     O    0.45255   0.61699   0.85040   1.000
    N16     N    0.81333   0.10961   0.83465   1.000
    O17     O    0.74358   0.13075   0.85320   1.000
    O18     O    0.74513   0.08847   0.85216   1.000
    O19     O    0.75482   0.32736   0.84344   1.000
    O20     O    0.84587   0.32440   0.84225   1.000
    O21     O    0.75578   0.89605   0.84539   1.000
    O22     O    0.84646   0.89009   0.83304   1.000
    N23     N    0.71011   0.38363   0.15204   1.000
    O24     O    0.87252   0.38898   0.15488   1.000
    O25     O    0.54731   0.38301   0.14960   1.000
    N26     N    0.21807   0.38730   0.64975   1.000
    O27     O    0.17052   0.38799   0.87035   1.000
    O28     O    0.25600   0.38367   0.43170   1.000
    O29     O    0.26144   0.38990   0.86480   1.000
    O30     O    0.16538   0.39435   0.43816   1.000
    N31     N    0.18659   0.89036   0.16536   1.000
    O32     O    0.25634   0.86922   0.14679   1.000
    O33     O    0.25479   0.91150   0.14783   1.000
    O34     O    0.24506   0.67262   0.15657   1.000
    O35     O    0.15404   0.67558   0.15775   1.000
    O36     O    0.24411   0.10393   0.15462   1.000
    O37     O    0.15347   0.10989   0.16697   1.000
loop_
    _geom_bond_atom_site_label_1
    _geom_bond_atom_site_label_2
    _geom_bond_distance
    _geom_bond_site_symmetry_2
    _ccdc_geom_bond_type
    Zr0    O6        1.41725      .   S
    Zr1    O6        1.41725      .   S
    Zr2    O7        1.41642      .   S
    Zr3    O7        1.41642      .   S
    N8     O9        3.39160      .   S
    Zr0    O9        4.44653  1_556   S
    N8     O10       3.34305      .   S
    Zr1    O10       4.36607      .   S
    N8     O11       3.39990      .   S
    Zr1    O11       4.42850  1_556   S
    N8     O12       3.37624      .   S
    Zr0    O12       4.41074      .   S
    N13    O14       2.28402      .   S
    Zr0    O14       3.31221  1_655   S
    N13    O15       2.28465      .   S
    Zr1    O15       3.31374      .   S
    N16    O17       1.04094      .   S
    Zr4    O17       1.73452      .   S
    N16    O18       1.02871      .   S
    Zr4    O18       1.74898      .   S
    N16    O19       3.38835      .   S
    Zr1    O19       4.43693      .   S
    N16    O20       3.32080      .   S
    Zr0    O20       4.31930      .   S
    N16    O21       3.36193  1_545   S
    Zr1    O21       4.40319      .   S
    N16    O22       3.35260  1_545   S
    Zr0    O22       4.36462      .   S
    N23    O24       2.28423      .   S
    Zr2    O24       3.31266  1_455   S
    N23    O25       2.28494      .   S
    Zr3    O25       3.31443      .   S
    N26    O27       3.39161      .   S
    Zr2    O27       4.44661  1_554   S
    N26    O28       3.34288      .   S
    Zr3    O28       4.36571      .   S
    N26    O29       3.39998      .   S
    Zr3    O29       4.42849  1_554   S
    N26    O30       3.37614      .   S
    Zr2    O30       4.41065      .   S
    N31    O32       1.04097      .   S
    Zr5    O32       1.73455      .   S
    N31    O33       1.02875      .   S
    Zr5    O33       1.74901      .   S
    N31    O34       3.38825      .   S
    Zr3    O34       4.43671      .   S
    N31    O35       3.32079      .   S
    Zr2    O35       4.31931      .   S
    N31    O36       3.36182  1_565   S
    Zr3    O36       4.40294      .   S
    N31    O37       3.35258  1_565   S
    Zr2    O37       4.36459      .   S
