# CIF file generated by openbabel 2.4.90, see http://openbabel.sf.net
data_I
_chemical_name_common ''
_cell_length_a 9.5345
_cell_length_b 11.0795
_cell_length_c 17.059
_cell_angle_alpha 90
_cell_angle_beta 90
_cell_angle_gamma 90.038
_space_group_name_H-M_alt 'P 1'
_space_group_name_Hall 'P 1'
loop_
    _symmetry_equiv_pos_as_xyz
    x,y,z
loop_
    _atom_site_label
    _atom_site_type_symbol
    _atom_site_fract_x
    _atom_site_fract_y
    _atom_site_fract_z
    _atom_site_occupancy
    H0      H    0.76519   0.33686   0.61309   1.000
    H1      H    0.76519   0.33686   0.11308   1.000
    H2      H    0.82093   0.13677   0.57416   1.000
    H3      H    0.82093   0.13677   0.07414   1.000
    H4      H    0.60860   0.28443   0.71070   1.000
    H5      H    0.60860   0.28443   0.21069   1.000
    H6      H    0.63686   0.04141   0.53163   1.000
    H7      H    0.63686   0.04141   0.03161   1.000
    H8      H    0.73230   0.66252   0.86210   1.000
    H9      H    0.73230   0.66252   0.36208   1.000
    H10     H    0.67922   0.86296   0.82446   1.000
    H11     H    0.67922   0.86296   0.32445   1.000
    H12     H    0.88907   0.71203   0.96053   1.000
    H13     H    0.88907   0.71203   0.46052   1.000
    H14     H    0.86293   0.95753   0.78166   1.000
    H15     H    0.86293   0.95753   0.28165   1.000
    H16     H    0.23422   0.83587   0.63688   1.000
    H17     H    0.23422   0.83587   0.13686   1.000
    H18     H    0.17876   0.63584   0.67565   1.000
    H19     H    0.17876   0.63584   0.17563   1.000
    H20     H    0.39113   0.78393   0.53925   1.000
    H21     H    0.39113   0.78393   0.03924   1.000
    H22     H    0.36216   0.54066   0.71839   1.000
    H23     H    0.36216   0.54066   0.21838   1.000
    H24     H    0.26696   0.16214   0.88773   1.000
    H25     H    0.26696   0.16214   0.38772   1.000
    H26     H    0.32012   0.36269   0.92568   1.000
    H27     H    0.32012   0.36269   0.42567   1.000
    H28     H    0.11020   0.21183   0.78937   1.000
    H29     H    0.11020   0.21183   0.28936   1.000
    H30     H    0.13566   0.45673   0.96827   1.000
    H31     H    0.13566   0.45673   0.46826   1.000
    C32     C    0.67516   0.27606   0.60303   1.000
    C33     C    0.67516   0.27606   0.10301   1.000
    C34     C    0.72650   0.14616   0.61126   1.000
    C35     C    0.72650   0.14616   0.11124   1.000
    C36     C    0.82342   0.72239   0.85276   1.000
    C37     C    0.82342   0.72239   0.35275   1.000
    C38     C    0.77380   0.85283   0.86137   1.000
    C39     C    0.77380   0.85283   0.36136   1.000
    C40     C    0.32442   0.77533   0.64691   1.000
    C41     C    0.32442   0.77533   0.14690   1.000
    C42     C    0.27327   0.64528   0.63861   1.000
    C43     C    0.27327   0.64528   0.13860   1.000
    C44     C    0.17595   0.22200   0.89713   1.000
    C45     C    0.17595   0.22200   0.39711   1.000
    C46     C    0.22571   0.35246   0.88863   1.000
    C47     C    0.22571   0.35246   0.38862   1.000
    O48     O    0.56649   0.30245   0.65935   1.000
    O49     O    0.56649   0.30245   0.15933   1.000
    O50     O    0.62131   0.05936   0.58937   1.000
    O51     O    0.62131   0.05936   0.08935   1.000
    O52     O    0.93106   0.69354   0.90921   1.000
    O53     O    0.93106   0.69354   0.40920   1.000
    O54     O    0.87961   0.93891   0.83915   1.000
    O55     O    0.87961   0.93891   0.33914   1.000
    O56     O    0.43304   0.80226   0.59062   1.000
    O57     O    0.43304   0.80226   0.09061   1.000
    O58     O    0.37834   0.55857   0.66071   1.000
    O59     O    0.37834   0.55857   0.16070   1.000
    O60     O    0.06819   0.19337   0.84069   1.000
    O61     O    0.06819   0.19337   0.34068   1.000
    O62     O    0.11978   0.43840   0.91064   1.000
    O63     O    0.11978   0.43840   0.41063   1.000
loop_
    _geom_bond_atom_site_label_1
    _geom_bond_atom_site_label_2
    _geom_bond_distance
    _geom_bond_site_symmetry_2
    _ccdc_geom_bond_type
    H7     O51       1.01575      .   S
    H21    O57       0.98425      .   S
    H3     C35       1.10550      .   S
    O51    C35       1.43839      .   S
    O57    C41       1.44338      .   S
    C33    C35       1.52698      .   S
    C33    H1        1.10435      .   S
    C33    O49       1.44308      .   S
    H17    C41       1.10433      .   S
    C43    C41       1.52741      .   S
    C43    O59       1.43873      .   S
    C43    H19       1.10551      .   S
    O49    H5        0.98419      .   S
    O59    H23       1.01551      .   S
    H15    O55       1.01471      .   S
    H29    O61       0.98421      .   S
    H11    C39       1.10562      .   S
    O55    C39       1.43864      .   S
    O61    C45       1.44313      .   S
    C37    C39       1.52806      .   S
    C37    H9        1.10425      .   S
    C37    O53       1.44335      .   S
    H25    C45       1.10420      .   S
    C47    C45       1.52793      .   S
    C47    O63       1.43844      .   S
    C47    H27       1.10562      .   S
    O53    H13       0.98434      .   S
    O63    H31       1.01520      .   S
    H6     O50       1.01575      .   S
    H20    O56       0.98424      .   S
    H2     C34       1.10550      .   S
    O50    C34       1.43839      .   S
    O56    C40       1.44338      .   S
    C32    C34       1.52698      .   S
    C32    H0        1.10435      .   S
    C32    O48       1.44308      .   S
    H16    C40       1.10433      .   S
    C42    C40       1.52741      .   S
    C42    O58       1.43873      .   S
    C42    H18       1.10551      .   S
    O48    H4        0.98419      .   S
    O58    H22       1.01551      .   S
    H14    O54       1.01471      .   S
    H28    O60       0.98421      .   S
    H10    C38       1.10562      .   S
    O54    C38       1.43864      .   S
    O60    C44       1.44313      .   S
    C36    C38       1.52806      .   S
    C36    H8        1.10425      .   S
    C36    O52       1.44335      .   S
    H24    C44       1.10420      .   S
    C46    C44       1.52793      .   S
    C46    O62       1.43844      .   S
    C46    H26       1.10562      .   S
    O52    H12       0.98434      .   S
    O62    H30       1.01520      .   S
