# CIF file generated by openbabel 2.4.90, see http://openbabel.sf.net
data_I
_chemical_name_common ''
_cell_length_a 9.5345
_cell_length_b 11.0795
_cell_length_c 17.059
_cell_angle_alpha 90
_cell_angle_beta 90
_cell_angle_gamma 90.038
_space_group_name_H-M_alt 'P 1'
_space_group_name_Hall 'P 1'
loop_
    _symmetry_equiv_pos_as_xyz
    x,y,z
loop_
    _atom_site_label
    _atom_site_type_symbol
    _atom_site_fract_x
    _atom_site_fract_y
    _atom_site_fract_z
    _atom_site_occupancy
    C0      C    0.61993   0.30200   0.51950   1.000
    C1      C    0.61993   0.30200   0.01948   1.000
    C2      C    0.77282   0.11065   0.69402   1.000
    C3      C    0.77282   0.11065   0.19401   1.000
    C4      C    0.87927   0.69741   0.76926   1.000
    C5      C    0.87927   0.69741   0.26925   1.000
    C6      C    0.72823   0.88871   0.94420   1.000
    C7      C    0.72823   0.88871   0.44419   1.000
    C8      C    0.37956   0.80140   0.73049   1.000
    C9      C    0.37956   0.80140   0.23047   1.000
    C10     C    0.22708   0.60946   0.55584   1.000
    C11     C    0.22708   0.60946   0.05583   1.000
    C12     C    0.12009   0.19698   0.98061   1.000
    C13     C    0.12009   0.19698   0.48060   1.000
    C14     C    0.27162   0.38835   0.80588   1.000
    C15     C    0.27162   0.38835   0.30586   1.000
    O16     O    0.49938   0.34867   0.51348   1.000
    O17     O    0.49938   0.34867   0.01347   1.000
    O18     O    0.70050   0.27534   0.46304   1.000
    O19     O    0.70050   0.27534   0.00000   1.000
    O20     O    0.77185   0.18600   0.75002   1.000
    O21     O    0.77185   0.18600   0.25000   1.000
    O22     O    0.80646   0.99998   0.70004   1.000
    O23     O    0.80646   0.99998   0.20002   1.000
    O24     O    1.00000   0.65110   0.76333   1.000
    O25     O    1.00000   0.65110   0.26331   1.000
    O26     O    0.79912   0.72474   0.71276   1.000
    O27     O    0.79912   0.72474   0.21275   1.000
    O28     O    0.72816   0.81326   0.50011   1.000
    O29     O    0.72816   0.81326   0.00010   1.000
    O30     O    0.69104   0.00033   0.94976   1.000
    O31     O    0.69104   0.00033   0.44975   1.000
    O32     O    0.49995   0.84856   0.73648   1.000
    O33     O    0.49995   0.84856   0.23647   1.000
    O34     O    0.29909   0.77443   0.78694   1.000
    O35     O    0.29909   0.77443   0.28692   1.000
    O36     O    0.22836   0.68455   0.99973   1.000
    O37     O    0.22836   0.68455   0.49971   1.000
    O38     O    0.19067   0.49852   0.55022   1.000
    O39     O    0.19067   0.49852   0.05020   1.000
    O40     O    0.99915   0.15100   0.98661   1.000
    O41     O    0.99915   0.15100   0.48659   1.000
    O42     O    0.20048   0.22407   0.03706   1.000
    O43     O    0.20048   0.22407   0.53705   1.000
    O44     O    0.27173   0.31295   0.74994   1.000
    O45     O    0.27173   0.31295   0.24993   1.000
    O46     O    0.30649   0.49969   0.80010   1.000
    O47     O    0.30649   0.49969   0.30008   1.000
loop_
    _geom_bond_atom_site_label_1
    _geom_bond_atom_site_label_2
    _geom_bond_distance
    _geom_bond_site_symmetry_2
    _ccdc_geom_bond_type
    O19    C1        0.88777      .   S
    O29    C6        1.26808  1_554   S
    O17    C1        1.26476      .   S
    O42    C12       1.26674  1_554   S
    O39    C11       1.28061      .   S
    C11    O36       1.26813  1_554   S
    C3     O23       1.27173  1_545   S
    C3     O21       1.26870      .   S
    O27    C5        1.26686      .   S
    C9     O33       1.26500      .   S
    C9     O35       1.26688      .   S
    O45    C15       1.26826      .   S
    O25    C5        1.26466      .   S
    O47    C15       1.28119      .   S
    C7     O31       1.29025  1_565   S
    C7     O28       1.26844      .   S
    O18    C0        1.26692      .   S
    C13    O41       1.26449  1_455   S
    C13    O43       1.26674      .   S
    O37    C10       1.26849      .   S
    O16    C0        1.26476      .   S
    O38    C10       1.28061      .   S
    C2     O22       1.27173  1_545   S
    C2     O20       1.26870      .   S
    O26    C4        1.26686      .   S
    C8     O32       1.26500      .   S
    C8     O34       1.26688      .   S
    O44    C14       1.26826      .   S
    O24    C4        1.26466      .   S
    O46    C14       1.28119      .   S
    C6     O30       1.29025  1_565   S
    C12    O40       1.26449  1_455   S
