# CIF file generated by openbabel 2.4.90, see http://openbabel.sf.net
data_I
_chemical_name_common ''
_cell_length_a 9.5345
_cell_length_b 11.0795
_cell_length_c 17.059
_cell_angle_alpha 90
_cell_angle_beta 90
_cell_angle_gamma 90.038
_space_group_name_H-M_alt 'P 1'
_space_group_name_Hall 'P 1'
loop_
    _symmetry_equiv_pos_as_xyz
    x,y,z
loop_
    _atom_site_label
    _atom_site_type_symbol
    _atom_site_fract_x
    _atom_site_fract_y
    _atom_site_fract_z
    _atom_site_occupancy
    Ca0     Ca   0.33400   0.34922   0.11335   1.000
    Ca1     Ca   0.16479   0.64909   0.86334   1.000
    Ca2     Ca   0.16479   0.64909   0.36333   1.000
    Ca3     Ca   0.66523   0.85026   0.63660   1.000
    Ca4     Ca   0.66523   0.85026   0.13659   1.000
    Ca5     Ca   0.83415   0.15003   0.88664   1.000
    Ca6     Ca   0.83415   0.15003   0.38663   1.000
    Ca7     Ca   0.33400   0.34922   0.61336   1.000
    C8      C    0.61993   0.30200   0.51950   1.000
    C9      C    0.61993   0.30200   0.01948   1.000
    C10     C    0.77282   0.11065   0.69402   1.000
    C11     C    0.77282   0.11065   0.19401   1.000
    C12     C    0.87927   0.69741   0.76926   1.000
    C13     C    0.87927   0.69741   0.26925   1.000
    C14     C    0.72823   0.88871   0.94420   1.000
    C15     C    0.72823   0.88871   0.44419   1.000
    C16     C    0.37956   0.80140   0.73049   1.000
    C17     C    0.37956   0.80140   0.23047   1.000
    C18     C    0.22708   0.60946   0.55584   1.000
    C19     C    0.22708   0.60946   0.05583   1.000
    C20     C    0.12009   0.19698   0.98061   1.000
    C21     C    0.12009   0.19698   0.48060   1.000
    C22     C    0.27162   0.38835   0.80588   1.000
    C23     C    0.27162   0.38835   0.30586   1.000
    O24     O    0.49938   0.34867   0.51348   1.000
    O25     O    0.49938   0.34867   0.01347   1.000
    O26     O    0.70050   0.27534   0.46304   1.000
    O27     O    0.70050   0.27534   0.00000   1.000
    O28     O    0.77185   0.18600   0.75002   1.000
    O29     O    0.77185   0.18600   0.25000   1.000
    O30     O    0.80646   0.99998   0.70004   1.000
    O31     O    0.80646   0.99998   0.20002   1.000
    O32     O    1.00000   0.65110   0.76333   1.000
    O33     O    1.00000   0.65110   0.26331   1.000
    O34     O    0.79912   0.72474   0.71276   1.000
    O35     O    0.79912   0.72474   0.21275   1.000
    O36     O    0.72816   0.81326   0.50011   1.000
    O37     O    0.72816   0.81326   0.00010   1.000
    O38     O    0.69104   0.00033   0.94976   1.000
    O39     O    0.69104   0.00033   0.44975   1.000
    O40     O    0.49995   0.84856   0.73648   1.000
    O41     O    0.49995   0.84856   0.23647   1.000
    O42     O    0.29909   0.77443   0.78694   1.000
    O43     O    0.29909   0.77443   0.28692   1.000
    O44     O    0.22836   0.68455   0.99973   1.000
    O45     O    0.22836   0.68455   0.49971   1.000
    O46     O    0.19067   0.49852   0.55022   1.000
    O47     O    0.19067   0.49852   0.05020   1.000
    O48     O    0.99915   0.15100   0.98661   1.000
    O49     O    0.99915   0.15100   0.48659   1.000
    O50     O    0.20048   0.22407   0.03706   1.000
    O51     O    0.20048   0.22407   0.53705   1.000
    O52     O    0.27173   0.31295   0.74994   1.000
    O53     O    0.27173   0.31295   0.24993   1.000
    O54     O    0.30649   0.49969   0.80010   1.000
    O55     O    0.30649   0.49969   0.30008   1.000
    Ts56    Ts   0.41150   0.33363   0.12868   1.000
    Ts57    Ts   0.34878   0.41900   0.12913   1.000
    Ts58    Ts   0.08688   0.66390   0.87863   1.000
    Ts59    Ts   0.14978   0.57886   0.87911   1.000
    Ts60    Ts   0.08688   0.66390   0.37862   1.000
    Ts61    Ts   0.14978   0.57886   0.37910   1.000
    Ts62    Ts   0.65059   0.91996   0.62086   1.000
    Ts63    Ts   0.58783   0.83426   0.62127   1.000
    Ts64    Ts   0.65059   0.91996   0.12084   1.000
    Ts65    Ts   0.58783   0.83426   0.12126   1.000
    Ts66    Ts   0.84930   0.07966   0.87081   1.000
    Ts67    Ts   0.91216   0.16448   0.87133   1.000
    Ts68    Ts   0.84930   0.07966   0.37080   1.000
    Ts69    Ts   0.91216   0.16448   0.37131   1.000
    Ts70    Ts   0.41150   0.33363   0.62869   1.000
    Ts71    Ts   0.34878   0.41900   0.62914   1.000
    Og72    Og   0.63834   0.29335   0.54734   1.000
    Og73    Og   0.63834   0.29335   0.04733   1.000
    Og74    Og   0.75738   0.12248   0.66643   1.000
    Og75    Og   0.75738   0.12248   0.16642   1.000
    Og76    Og   0.86065   0.70574   0.79709   1.000
    Og77    Og   0.86065   0.70574   0.29708   1.000
    Og78    Og   0.74342   0.87675   0.91659   1.000
    Og79    Og   0.74342   0.87675   0.41658   1.000
    Og80    Og   0.36118   0.79271   0.70263   1.000
    Og81    Og   0.36118   0.79271   0.20261   1.000
    Og82    Og   0.24248   0.62140   0.58343   1.000
    Og83    Og   0.24248   0.62140   0.08342   1.000
    Og84    Og   0.13871   0.20532   0.95278   1.000
    Og85    Og   0.13871   0.20532   0.45277   1.000
    Og86    Og   0.25632   0.37639   0.83346   1.000
    Og87    Og   0.25632   0.37639   0.33345   1.000
    Ts88    Ts   0.69205   0.27558   0.03434   1.000
loop_
    _geom_bond_atom_site_label_1
    _geom_bond_atom_site_label_2
    _geom_bond_distance
    _geom_bond_site_symmetry_2
    _ccdc_geom_bond_type
    O27    C9        0.88777      .   S
    O37    C14       1.26808  1_554   S
    O25    C9        1.26476      .   S
    O25    Ca0       2.32152      .   S
    O50    Ca0       2.28790      .   S
    O50    C20       1.26674  1_554   S
    O47    C19       1.28061      .   S
    C19    O44       1.26813  1_554   S
    Ca4    O35       2.29212      .   S
    Ca4    O41       2.32094      .   S
    C11    O31       1.27173  1_545   S
    C11    O29       1.26870      .   S
    O35    C13       1.26686      .   S
    C17    O41       1.26500      .   S
    C17    O43       1.26688      .   S
    O53    C23       1.26826      .   S
    O33    C13       1.26466      .   S
    O33    Ca2       2.31953  1_655   S
    O43    Ca2       2.29455      .   S
    O55    C23       1.28119      .   S
    Ca6    O26       2.29192      .   S
    Ca6    O49       2.32015      .   S
    C15    O39       1.29025  1_565   S
    C15    O36       1.26844      .   S
    O26    C8        1.26692      .   S
    C21    O49       1.26449  1_455   S
    C21    O51       1.26674      .   S
    O45    C18       1.26849      .   S
    O24    C8        1.26476      .   S
    O24    Ca7       2.32152      .   S
    O51    Ca7       2.28817      .   S
    O46    C18       1.28061      .   S
    Ca3    O34       2.29212      .   S
    Ca3    O40       2.32094      .   S
    C10    O30       1.27173  1_545   S
    C10    O28       1.26870      .   S
    O34    C12       1.26686      .   S
    C16    O40       1.26500      .   S
    C16    O42       1.26688      .   S
    O52    C22       1.26826      .   S
    O32    C12       1.26466      .   S
    O32    Ca1       2.31953  1_655   S
    O42    Ca1       2.29455      .   S
    O54    C22       1.28119      .   S
    Ca5    O38       2.40190      .   S
    Ca5    O48       2.32015      .   S
    C14    O38       1.29025  1_565   S
    C20    O48       1.26449  1_455   S
    O27    Ca5       2.70057  1_554   S
    O28    Ca5       2.43805      .   S
    O29    Ca6       2.43805      .   S
    O30    Ca3       2.39439      .   S
    O31    Ca4       2.39439      .   S
    O36    Ca3       2.43922      .   S
    O37    Ca4       2.43922      .   S
    O39    Ca6       2.40190      .   S
    O44    Ca1       2.43610      .   S
    O45    Ca2       2.43610      .   S
    O46    Ca7       2.40144      .   S
    O47    Ca0       2.40144      .   S
    O52    Ca7       2.43765      .   S
    O53    Ca0       2.43765      .   S
    O54    Ca1       2.39416      .   S
    O55    Ca2       2.39416      .   S
    Ca0    Ts56      0.80271      .   S
    Ca0    Ts57      0.83065      .   S
    Ca1    Ts58      0.80431      .   S
    Ca1    Ts59      0.83552      .   S
    Ca2    Ts60      0.80431      .   S
    Ca2    Ts61      0.83552      .   S
    Ca3    Ts62      0.82951      .   S
    Ca3    Ts63      0.80262      .   S
    Ca4    Ts64      0.82951      .   S
    Ca4    Ts65      0.80262      .   S
    Ca5    Ts66      0.83779      .   S
    Ca5    Ts67      0.80437      .   S
    Ca6    Ts68      0.83779      .   S
    Ca6    Ts69      0.80437      .   S
    Ca7    Ts70      0.80271      .   S
    Ca7    Ts71      0.83065      .   S
    C8     Og72      0.51539      .   S
    C9     Og73      0.51539      .   S
    C10    Og74      0.51028      .   S
    C11    Og75      0.51028      .   S
    C12    Og76      0.51525      .   S
    C13    Og77      0.51525      .   S
    C14    Og78      0.51031      .   S
    C15    Og79      0.51031      .   S
    C16    Og80      0.51556      .   S
    C17    Og81      0.51556      .   S
    C18    Og82      0.51043      .   S
    C19    Og83      0.51043      .   S
    C20    Og84      0.51514      .   S
    C21    Og85      0.51514      .   S
    C22    Og86      0.51017      .   S
    C23    Og87      0.51017      .   S
    O27    Ts88      0.59128      .   S
