# CIF file generated by openbabel 2.4.90, see http://openbabel.sf.net
data_I
_chemical_name_common ''
_cell_length_a 9.5345
_cell_length_b 11.0795
_cell_length_c 17.059
_cell_angle_alpha 90
_cell_angle_beta 90
_cell_angle_gamma 90.038
_space_group_name_H-M_alt 'P 1'
_space_group_name_Hall 'P 1'
loop_
    _symmetry_equiv_pos_as_xyz
    x,y,z
loop_
    _atom_site_label
    _atom_site_type_symbol
    _atom_site_fract_x
    _atom_site_fract_y
    _atom_site_fract_z
    _atom_site_occupancy
    C0      C    0.61993   0.30200   0.51950   1.000
    C1      C    0.61993   0.30200   0.01948   1.000
    C2      C    0.77282   0.11065   0.69402   1.000
    C3      C    0.77282   0.11065   0.19401   1.000
    C4      C    0.87927   0.69741   0.76926   1.000
    C5      C    0.87927   0.69741   0.26925   1.000
    C6      C    0.72823   0.88871   0.94420   1.000
    C7      C    0.72823   0.88871   0.44419   1.000
    C8      C    0.37956   0.80140   0.73049   1.000
    C9      C    0.37956   0.80140   0.23047   1.000
    C10     C    0.22708   0.60946   0.55584   1.000
    C11     C    0.22708   0.60946   0.05583   1.000
    C12     C    0.12009   0.19698   0.98061   1.000
    C13     C    0.12009   0.19698   0.48060   1.000
    C14     C    0.27162   0.38835   0.80588   1.000
    C15     C    0.27162   0.38835   0.30586   1.000
