# CIF file generated by openbabel 2.4.90, see http://openbabel.sf.net
data_I
_chemical_name_common ''
_cell_length_a 9.5345
_cell_length_b 11.0795
_cell_length_c 17.059
_cell_angle_alpha 90
_cell_angle_beta 90
_cell_angle_gamma 90.038
_space_group_name_H-M_alt 'P 1'
_space_group_name_Hall 'P 1'
loop_
    _symmetry_equiv_pos_as_xyz
    x,y,z
loop_
    _atom_site_label
    _atom_site_type_symbol
    _atom_site_fract_x
    _atom_site_fract_y
    _atom_site_fract_z
    _atom_site_occupancy
    Zr0     Zr   0.33400   0.34922   0.61336   1.000
    Zr1     Zr   0.33400   0.34922   0.11335   1.000
    Zr2     Zr   0.16479   0.64909   0.86334   1.000
    Zr3     Zr   0.16479   0.64909   0.36333   1.000
    Zr4     Zr   0.66523   0.85026   0.63660   1.000
    Zr5     Zr   0.66523   0.85026   0.13659   1.000
    Zr6     Zr   0.83415   0.15003   0.88664   1.000
    Zr7     Zr   0.83415   0.15003   0.38663   1.000
    N8      N    0.82143   0.80034   0.86141   1.000
    O9      O    0.83915   0.92241   0.86215   1.000
    O10     O    0.93467   0.73583   0.87384   1.000
    N11     N    0.17782   0.29995   0.88852   1.000
    O12     O    0.06450   0.23583   0.87609   1.000
    O13     O    0.16005   0.42185   0.88776   1.000
    N14     N    0.17782   0.29995   0.38850   1.000
    O15     O    0.16005   0.42185   0.38774   1.000
    O16     O    0.06450   0.23583   0.37608   1.000
    N17     N    0.67763   0.19794   0.11156   1.000
    O18     O    0.66045   0.07637   0.11226   1.000
    O19     O    0.56394   0.26189   0.12395   1.000
    N20     N    0.67763   0.19794   0.61157   1.000
    O21     O    0.56394   0.26189   0.62396   1.000
    O22     O    0.66045   0.07637   0.61228   1.000
    N23     N    0.32192   0.69722   0.13836   1.000
    O24     O    0.33904   0.57556   0.13769   1.000
    O25     O    0.43553   0.76174   0.12598   1.000
    N26     N    0.82143   0.80034   0.36139   1.000
    O27     O    0.93467   0.73583   0.37383   1.000
    O28     O    0.83915   0.92241   0.36214   1.000
    N29     N    0.32192   0.69722   0.63838   1.000
    O30     O    0.43553   0.76174   0.62599   1.000
    O31     O    0.33904   0.57556   0.63771   1.000
    C32     C    0.71581   0.90077   0.96469   1.000
    O33     O    0.75102   0.86816   0.92339   1.000
    O34     O    0.70626   0.86626   0.01652   1.000
    O35     O    0.73920   0.98797   0.94144   1.000
    C36     C    0.21537   0.59751   0.03525   1.000
    O37     O    0.23885   0.51069   0.05851   1.000
    O38     O    0.20597   0.63216   0.98339   1.000
    O39     O    0.25071   0.62990   0.07652   1.000
    C40     C    0.60660   0.30867   0.01098   1.000
    O41     O    0.51165   0.32881   0.03720   1.000
    O42     O    0.68696   0.26068   0.97715   1.000
    C43     C    0.10657   0.19069   0.00143   1.000
    O44     O    0.01161   0.17060   0.96903   1.000
    O45     O    0.18691   0.23867   0.03832   1.000
    O46     O    0.13475   0.22270   0.95756   1.000
    C47     C    0.39287   0.80813   0.75130   1.000
    O48     O    0.36491   0.77546   0.70742   1.000
    O49     O    0.31240   0.75994   0.78822   1.000
    O50     O    0.48773   0.82877   0.71892   1.000
    C51     C    0.78371   0.09888   0.71469   1.000
    O52     O    0.74868   0.13102   0.67340   1.000
    O53     O    0.75978   0.01200   0.69151   1.000
    O54     O    0.79335   0.13345   0.76651   1.000
    C55     C    0.60660   0.30867   0.49867   1.000
    O56     O    0.51165   0.32881   0.53105   1.000
    O57     O    0.68696   0.26068   0.46175   1.000
    O58     O    0.63460   0.27608   0.54255   1.000
    C59     C    0.10657   0.19069   0.50141   1.000
    O60     O    0.18691   0.23867   0.53831   1.000
    O61     O    0.01161   0.17060   0.46901   1.000
    O62     O    0.13475   0.22270   0.45755   1.000
    C63     C    0.89279   0.69108   0.74845   1.000
    O64     O    0.98759   0.67059   0.78089   1.000
    O65     O    0.81248   0.73929   0.71157   1.000
    O66     O    0.86459   0.72310   0.79233   1.000
    C67     C    0.28328   0.40033   0.78530   1.000
    O68     O    0.29307   0.36571   0.73348   1.000
    O69     O    0.24826   0.36776   0.82660   1.000
    O70     O    0.25946   0.48736   0.80851   1.000
    C71     C    0.28328   0.40033   0.28529   1.000
    O72     O    0.25946   0.48736   0.30850   1.000
    O73     O    0.24826   0.36776   0.32658   1.000
    O74     O    0.29307   0.36571   0.23346   1.000
    C75     C    0.78371   0.09888   0.21468   1.000
    O76     O    0.74868   0.13102   0.17338   1.000
    O77     O    0.79335   0.13345   0.26650   1.000
    O78     O    0.75978   0.01200   0.19149   1.000
    C79     C    0.71581   0.90077   0.46468   1.000
    O80     O    0.70626   0.86626   0.51652   1.000
    O81     O    0.73920   0.98797   0.44143   1.000
    O82     O    0.75102   0.86816   0.42338   1.000
    C83     C    0.39287   0.80813   0.25129   1.000
    O84     O    0.48773   0.82877   0.21891   1.000
    O85     O    0.31240   0.75994   0.28821   1.000
    O86     O    0.36491   0.77546   0.20741   1.000
    C87     C    0.89279   0.69108   0.24843   1.000
    O88     O    0.98759   0.67059   0.28088   1.000
    O89     O    0.81248   0.73929   0.21155   1.000
    O90     O    0.86459   0.72310   0.29231   1.000
    C91     C    0.21537   0.59751   0.53526   1.000
    O92     O    0.20597   0.63216   0.48339   1.000
    O93     O    0.23885   0.51069   0.55852   1.000
    O94     O    0.25071   0.62990   0.57653   1.000
    O95     O    0.63963   0.27441   0.04748   1.000
loop_
    _geom_bond_atom_site_label_1
    _geom_bond_atom_site_label_2
    _geom_bond_distance
    _geom_bond_site_symmetry_2
    _ccdc_geom_bond_type
    N8     O9        1.36289      .   S
    Zr6    O9        2.55684  1_545   S
    N8     O10       1.31257      .   S
    Zr2    O10       2.40252  1_455   S
    N11    O12       1.31003      .   S
    Zr6    O12       2.39930  1_655   S
    N11    O13       1.36130      .   S
    Zr2    O13       2.55227      .   S
    N14    O15       1.36130      .   S
    Zr3    O15       2.55227      .   S
    N14    O16       1.31003      .   S
    Zr7    O16       2.39930  1_655   S
    N17    O18       1.35674      .   S
    Zr5    O18       2.53976  1_565   S
    N17    O19       1.31255      .   S
    Zr1    O19       2.40378      .   S
    N20    O21       1.31255      .   S
    Zr0    O21       2.40378      .   S
    N20    O22       1.35674      .   S
    Zr4    O22       2.53976  1_565   S
    N23    O24       1.35796      .   S
    Zr1    O24       2.54226      .   S
    N23    O25       1.31452      .   S
    Zr5    O25       2.40594      .   S
    N26    O27       1.31257      .   S
    Zr3    O27       2.40252  1_455   S
    N26    O28       1.36289      .   S
    Zr7    O28       2.55684  1_545   S
    N29    O30       1.31452      .   S
    Zr4    O30       2.40594      .   S
    N29    O31       1.35796      .   S
    Zr0    O31       2.54226      .   S
    C32    O33       0.85999      .   S
    N8     O33       1.46086      .   S
    C32    O34       0.96752  1_556   S
    Zr5    O34       2.09284      .   S
    C32    O35       1.06782      .   S
    Zr6    O35       2.21703  1_545   S
    C36    O37       1.06449      .   S
    Zr1    O37       2.21370      .   S
    C36    O38       0.96857  1_554   S
    Zr2    O38       2.09371      .   S
    C36    O39       0.85893      .   S
    N23    O39       1.45931      .   S
    C40    O41       1.03425      .   S
    Zr1    O41       2.14666      .   S
    C40    O42       1.09699  1_554   S
    Zr6    O42       2.42041      .   S
    C43    O44       1.08376  1_554   S
    Zr6    O44       2.21120  1_655   S
    C43    O45       1.12460      .   S
    Zr1    O45       2.25905      .   S
    C43    O46       0.87055  1_554   S
    N11    O46       1.51258      .   S
    C47    O48       0.87310      .   S
    N29    O48       1.51862      .   S
    C47    O49       1.12681      .   S
    Zr2    O49       2.26484      .   S
    C47    O50       1.08406      .   S
    Zr4    O50       2.21188      .   S
    C51    O52       0.85720      .   S
    N20    O52       1.45655      .   S
    C51    O53       1.06524      .   S
    Zr4    O53       2.21335  1_565   S
    C51    O54       0.96774      .   S
    Zr6    O54       2.09396      .   S
    C55    O56       1.08385      .   S
    Zr0    O56       2.21185      .   S
    C55    O57       1.12560      .   S
    Zr7    O57       2.26205      .   S
    C55    O58       0.87285      .   S
    N20    O58       1.51819      .   S
    C59    O60       1.12466      .   S
    Zr0    O60       2.25925      .   S
    C59    O61       1.08376      .   S
    Zr7    O61       2.21120  1_655   S
    C59    O62       0.87055      .   S
    N14    O62       1.51258      .   S
    C63    O64       1.08402      .   S
    Zr2    O64       2.21130  1_455   S
    C63    O65       1.12607      .   S
    Zr4    O65       2.26282      .   S
    C63    O66       0.87098      .   S
    N8     O66       1.51352      .   S
    C67    O68       0.96829      .   S
    Zr0    O68       2.09391      .   S
    C67    O69       0.85892      .   S
    N11    O69       1.45966      .   S
    C67    O70       1.06693      .   S
    Zr2    O70       2.21415      .   S
    C71    O72       1.06693      .   S
    Zr3    O72       2.21415      .   S
    C71    O73       0.85892      .   S
    N14    O73       1.45966      .   S
    C71    O74       0.96829      .   S
    Zr1    O74       2.09391      .   S
    C75    O76       0.85720      .   S
    N17    O76       1.45655      .   S
    C75    O77       0.96774      .   S
    Zr7    O77       2.09396      .   S
    C75    O78       1.06524      .   S
    Zr5    O78       2.21335  1_565   S
    C79    O80       0.96766      .   S
    Zr4    O80       2.09299      .   S
    C79    O81       1.06785      .   S
    Zr7    O81       2.21706  1_545   S
    C79    O82       0.86006      .   S
    N26    O82       1.46092      .   S
    C83    O84       1.08406      .   S
    Zr5    O84       2.21188      .   S
    C83    O85       1.12681      .   S
    Zr3    O85       2.26484      .   S
    C83    O86       0.87310      .   S
    N23    O86       1.51863      .   S
    C87    O88       1.08402      .   S
    Zr3    O88       2.21130  1_455   S
    C87    O89       1.12607      .   S
    Zr5    O89       2.26282      .   S
    C87    O90       0.87098      .   S
    N26    O90       1.51352      .   S
    C91    O92       0.96871      .   S
    Zr3    O92       2.09387      .   S
    C91    O93       1.06452      .   S
    Zr0    O93       2.21373      .   S
    C91    O94       0.85900      .   S
    N29    O94       1.45937      .   S
    C40    O95       0.79430      .   S
    N17    O95       1.42989      .   S
