# CIF file generated by openbabel 2.4.90, see http://openbabel.sf.net
data_I
_chemical_name_common ''
_cell_length_a 9.5345
_cell_length_b 11.0795
_cell_length_c 17.059
_cell_angle_alpha 90
_cell_angle_beta 90
_cell_angle_gamma 90.038
_space_group_name_H-M_alt 'P 1'
_space_group_name_Hall 'P 1'
loop_
    _symmetry_equiv_pos_as_xyz
    x,y,z
loop_
    _atom_site_label
    _atom_site_type_symbol
    _atom_site_fract_x
    _atom_site_fract_y
    _atom_site_fract_z
    _atom_site_occupancy
    Zr0     Zr   0.33400   0.34922   0.61336   1.000
    Zr1     Zr   0.33400   0.34922   0.11335   1.000
    Zr2     Zr   0.16479   0.64909   0.86334   1.000
    Zr3     Zr   0.16479   0.64909   0.36333   1.000
    Zr4     Zr   0.66523   0.85026   0.63660   1.000
    Zr5     Zr   0.66523   0.85026   0.13659   1.000
    Zr6     Zr   0.83415   0.15003   0.88664   1.000
    Zr7     Zr   0.83415   0.15003   0.38663   1.000
    Zr8     Zr   0.61993   0.30200   0.51950   1.000
    Zr9     Zr   0.61993   0.30200   0.01948   1.000
    Zr10    Zr   0.77282   0.11065   0.69402   1.000
    Zr11    Zr   0.77282   0.11065   0.19401   1.000
    Zr12    Zr   0.87927   0.69741   0.76926   1.000
    Zr13    Zr   0.87927   0.69741   0.26925   1.000
    Zr14    Zr   0.72823   0.88871   0.94420   1.000
    Zr15    Zr   0.72823   0.88871   0.44419   1.000
    Zr16    Zr   0.37956   0.80140   0.73049   1.000
    Zr17    Zr   0.37956   0.80140   0.23047   1.000
    Zr18    Zr   0.22708   0.60946   0.55584   1.000
    Zr19    Zr   0.22708   0.60946   0.05583   1.000
    Zr20    Zr   0.12009   0.19698   0.98061   1.000
    Zr21    Zr   0.12009   0.19698   0.48060   1.000
    Zr22    Zr   0.27162   0.38835   0.80588   1.000
    Zr23    Zr   0.27162   0.38835   0.30586   1.000
    Zr24    Zr   0.49938   0.34867   0.51348   1.000
    Zr25    Zr   0.49938   0.34867   0.01347   1.000
    Zr26    Zr   0.70050   0.27534   0.46304   1.000
    Zr27    Zr   0.70050   0.27534   0.00000   1.000
    Zr28    Zr   0.77185   0.18600   0.75002   1.000
    Zr29    Zr   0.77185   0.18600   0.25000   1.000
    Zr30    Zr   0.80646   0.99998   0.70004   1.000
    Zr31    Zr   0.80646   0.99998   0.20002   1.000
    Zr32    Zr   1.00000   0.65110   0.76333   1.000
    Zr33    Zr   1.00000   0.65110   0.26331   1.000
    Zr34    Zr   0.79912   0.72474   0.71276   1.000
    Zr35    Zr   0.79912   0.72474   0.21275   1.000
    Zr36    Zr   0.72816   0.81326   0.50011   1.000
    Zr37    Zr   0.72816   0.81326   0.00010   1.000
    Zr38    Zr   0.69104   0.00033   0.94976   1.000
    Zr39    Zr   0.69104   0.00033   0.44975   1.000
    Zr40    Zr   0.49995   0.84856   0.73648   1.000
    Zr41    Zr   0.49995   0.84856   0.23647   1.000
    Zr42    Zr   0.29909   0.77443   0.78694   1.000
    Zr43    Zr   0.29909   0.77443   0.28692   1.000
    Zr44    Zr   0.22836   0.68455   0.99973   1.000
    Zr45    Zr   0.22836   0.68455   0.49971   1.000
    Zr46    Zr   0.19067   0.49852   0.55022   1.000
    Zr47    Zr   0.19067   0.49852   0.05020   1.000
    Zr48    Zr   0.99915   0.15100   0.98661   1.000
    Zr49    Zr   0.99915   0.15100   0.48659   1.000
    Zr50    Zr   0.20048   0.22407   0.03706   1.000
    Zr51    Zr   0.20048   0.22407   0.53705   1.000
    Zr52    Zr   0.27173   0.31295   0.74994   1.000
    Zr53    Zr   0.27173   0.31295   0.24993   1.000
    Zr54    Zr   0.30649   0.49969   0.80010   1.000
    Zr55    Zr   0.30649   0.49969   0.30008   1.000
    O56     O    0.66022   0.28867   0.00974   1.000
    O57     O    0.72820   0.85099   0.97215   1.000
    O58     O    0.55966   0.32533   0.01648   1.000
    O59     O    0.41669   0.34894   0.06341   1.000
    O60     O    0.26724   0.28665   0.07520   1.000
    O61     O    0.16028   0.21053   0.00884   1.000
    O62     O    0.20887   0.55399   0.05302   1.000
    O63     O    0.22772   0.64700   0.02778   1.000
    O64     O    0.73218   0.78750   0.17467   1.000
    O65     O    0.58259   0.84941   0.18653   1.000
    O66     O    0.78964   0.05532   0.19702   1.000
    O67     O    0.77233   0.14833   0.22201   1.000
    O68     O    0.83919   0.71108   0.24100   1.000
    O69     O    0.43975   0.82498   0.23347   1.000
    O70     O    0.33933   0.78791   0.25870   1.000
    O71     O    0.27167   0.35065   0.27789   1.000
    O72     O    0.93963   0.67426   0.26628   1.000
    O73     O    0.08239   0.65009   0.31332   1.000
    O74     O    0.23194   0.71176   0.32513   1.000
    O75     O    0.28905   0.44402   0.30297   1.000
    O76     O    0.76733   0.21269   0.42484   1.000
    O77     O    0.91665   0.15052   0.43661   1.000
    O78     O    0.70964   0.94452   0.44697   1.000
    O79     O    0.72820   0.85099   0.47215   1.000
    O80     O    0.66022   0.28867   0.49127   1.000
    O81     O    0.05962   0.17399   0.48360   1.000
    O82     O    0.16028   0.21053   0.50882   1.000
    O83     O    0.22772   0.64700   0.52778   1.000
    O84     O    0.55966   0.32533   0.51649   1.000
    O85     O    0.41669   0.34894   0.56342   1.000
    O86     O    0.26724   0.28665   0.57520   1.000
    O87     O    0.20887   0.55399   0.55303   1.000
    O88     O    0.73218   0.78750   0.67468   1.000
    O89     O    0.58259   0.84941   0.68654   1.000
    O90     O    0.78964   0.05532   0.69703   1.000
    O91     O    0.77233   0.14833   0.72202   1.000
    O92     O    0.83919   0.71108   0.74101   1.000
    O93     O    0.43975   0.82498   0.73348   1.000
    O94     O    0.33933   0.78791   0.75871   1.000
    O95     O    0.27167   0.35065   0.77791   1.000
    O96     O    0.93963   0.67426   0.76629   1.000
    O97     O    0.08239   0.65009   0.81333   1.000
    O98     O    0.23194   0.71176   0.82514   1.000
    O99     O    0.28905   0.44402   0.80299   1.000
    O100    O    0.76259   0.07518   0.91820   1.000
    O101    O    0.91665   0.15052   0.93663   1.000
    O102    O    0.70964   0.94452   0.94698   1.000
    O103    O    0.05962   0.17399   0.98361   1.000
    O104    O    0.76733   0.21269   0.94332   1.000
    O105    O    0.80300   0.16802   0.81833   1.000
    O106    O    0.80300   0.16802   0.31832   1.000
    O107    O    0.73585   0.92512   0.66832   1.000
    O108    O    0.73585   0.92512   0.16831   1.000
    O109    O    0.69670   0.83176   0.56836   1.000
    O110    O    0.69670   0.83176   0.06834   1.000
    O111    O    0.76259   0.07518   0.41819   1.000
    O112    O    0.19657   0.66682   0.93154   1.000
    O113    O    0.19657   0.66682   0.43152   1.000
    O114    O    0.26234   0.42387   0.58179   1.000
    O115    O    0.26234   0.42387   0.08177   1.000
    O116    O    0.30287   0.33109   0.68165   1.000
    O117    O    0.30287   0.33109   0.18164   1.000
    O118    O    0.23564   0.57439   0.83172   1.000
    O119    O    0.23564   0.57439   0.33170   1.000
    N120    N    0.82143   0.80034   0.86141   1.000
    O121    O    0.78622   0.83556   0.88210   1.000
    O122    O    0.83915   0.92241   0.86215   1.000
    O123    O    0.93467   0.73583   0.87384   1.000
    O124    O    0.83638   0.75512   0.83621   1.000
    N125    N    0.17782   0.29995   0.88852   1.000
    O126    O    0.06450   0.23583   0.87609   1.000
    O127    O    0.16005   0.42185   0.88776   1.000
    O128    O    0.21324   0.33518   0.86789   1.000
    O129    O    0.16292   0.25472   0.91369   1.000
    N130    N    0.17782   0.29995   0.38850   1.000
    O131    O    0.16005   0.42185   0.38774   1.000
    O132    O    0.16292   0.25472   0.41368   1.000
    O133    O    0.21324   0.33518   0.36787   1.000
    O134    O    0.06450   0.23583   0.37608   1.000
    N135    N    0.67763   0.19794   0.11156   1.000
    O136    O    0.71364   0.16317   0.13209   1.000
    O137    O    0.66045   0.07637   0.11226   1.000
    O138    O    0.66259   0.24348   0.08640   1.000
    O139    O    0.68273   0.23682   0.08153   1.000
    O140    O    0.56394   0.26189   0.12395   1.000
    N141    N    0.67763   0.19794   0.61157   1.000
    O142    O    0.66259   0.24348   0.58642   1.000
    O143    O    0.71364   0.16317   0.63211   1.000
    O144    O    0.56394   0.26189   0.62396   1.000
    O145    O    0.66045   0.07637   0.61228   1.000
    N146    N    0.32192   0.69722   0.13836   1.000
    O147    O    0.28605   0.66229   0.11779   1.000
    O148    O    0.33695   0.74279   0.16352   1.000
    O149    O    0.33904   0.57556   0.13769   1.000
    O150    O    0.43553   0.76174   0.12598   1.000
    N151    N    0.82143   0.80034   0.36139   1.000
    O152    O    0.78622   0.83556   0.38208   1.000
    O153    O    0.83638   0.75512   0.33619   1.000
    O154    O    0.93467   0.73583   0.37383   1.000
    O155    O    0.83915   0.92241   0.36214   1.000
    N156    N    0.32192   0.69722   0.63838   1.000
    O157    O    0.33695   0.74279   0.66354   1.000
    O158    O    0.28605   0.66229   0.61780   1.000
    O159    O    0.43553   0.76174   0.62599   1.000
    O160    O    0.33904   0.57556   0.63771   1.000
loop_
    _geom_bond_atom_site_label_1
    _geom_bond_atom_site_label_2
    _geom_bond_distance
    _geom_bond_site_symmetry_2
    _ccdc_geom_bond_type
    Zr27   O56       0.44388      .   S
    Zr9    O56       0.44388      .   S
    Zr37   O57       0.63404  1_554   S
    Zr14   O57       0.63404      .   S
    Zr25   O58       0.63238      .   S
    Zr9    O58       0.63238      .   S
    Zr25   O59       1.16076      .   S
    Zr1    O59       1.16076      .   S
    Zr50   O60       1.14395      .   S
    Zr1    O60       1.14395      .   S
    Zr50   O61       0.63337      .   S
    Zr20   O61       0.63337  1_556   S
    Zr47   O62       0.64031      .   S
    Zr19   O62       0.64031      .   S
    Zr19   O63       0.63407      .   S
    Zr44   O63       0.63407  1_556   S
    Zr5    O64       1.14606      .   S
    Zr35   O64       1.14606      .   S
    Zr5    O65       1.16047      .   S
    Zr41   O65       1.16047      .   S
    Zr11   O66       0.63586      .   S
    Zr31   O66       0.63586  1_565   S
    Zr11   O67       0.63435      .   S
    Zr29   O67       0.63435      .   S
    Zr35   O68       0.63343      .   S
    Zr13   O68       0.63343      .   S
    Zr17   O69       0.63250      .   S
    Zr41   O69       0.63250      .   S
    Zr17   O70       0.63344      .   S
    Zr43   O70       0.63344      .   S
    Zr53   O71       0.63413      .   S
    Zr23   O71       0.63413      .   S
    Zr33   O72       0.63233      .   S
    Zr13   O72       0.63233      .   S
    Zr33   O73       1.15976  1_655   S
    Zr3    O73       1.15976      .   S
    Zr43   O74       1.14727      .   S
    Zr3    O74       1.14727      .   S
    Zr55   O75       0.64060      .   S
    Zr23   O75       0.64060      .   S
    Zr7    O76       1.14596      .   S
    Zr26   O76       1.14596      .   S
    Zr7    O77       1.16007      .   S
    Zr49   O77       1.16007      .   S
    Zr15   O78       0.64513      .   S
    Zr39   O78       0.64513  1_545   S
    Zr15   O79       0.63422      .   S
    Zr36   O79       0.63422      .   S
    Zr26   O80       0.63346      .   S
    Zr8    O80       0.63346      .   S
    Zr21   O81       0.63224      .   S
    Zr49   O81       0.63224  1_655   S
    Zr21   O82       0.63337      .   S
    Zr51   O82       0.63337      .   S
    Zr45   O83       0.63425      .   S
    Zr18   O83       0.63425      .   S
    Zr24   O84       0.63238      .   S
    Zr8    O84       0.63238      .   S
    Zr24   O85       1.16076      .   S
    Zr0    O85       1.16076      .   S
    Zr51   O86       1.14409      .   S
    Zr0    O86       1.14409      .   S
    Zr46   O87       0.64031      .   S
    Zr18   O87       0.64031      .   S
    Zr4    O88       1.14606      .   S
    Zr34   O88       1.14606      .   S
    Zr4    O89       1.16047      .   S
    Zr40   O89       1.16047      .   S
    Zr10   O90       0.63586      .   S
    Zr30   O90       0.63586  1_565   S
    Zr10   O91       0.63435      .   S
    Zr28   O91       0.63435      .   S
    Zr34   O92       0.63343      .   S
    Zr12   O92       0.63343      .   S
    Zr16   O93       0.63250      .   S
    Zr40   O93       0.63250      .   S
    Zr16   O94       0.63344      .   S
    Zr42   O94       0.63344      .   S
    Zr52   O95       0.63413      .   S
    Zr22   O95       0.63413      .   S
    Zr32   O96       0.63233      .   S
    Zr12   O96       0.63233      .   S
    Zr32   O97       1.15976  1_655   S
    Zr2    O97       1.15976      .   S
    Zr42   O98       1.14727      .   S
    Zr2    O98       1.14727      .   S
    Zr54   O99       0.64060      .   S
    Zr22   O99       0.64060      .   S
    Zr6    O100      1.20095      .   S
    Zr38   O100      1.20095      .   S
    Zr6    O101      1.16007      .   S
    Zr48   O101      1.16007      .   S
    Zr14   O102      0.64513      .   S
    Zr38   O102      0.64513  1_545   S
    Zr20   O103      0.63224      .   S
    Zr48   O103      0.63224  1_655   S
    Zr27   O104      1.35029  1_554   S
    Zr6    O104      1.35029      .   S
    Zr28   O105      1.21903      .   S
    Zr6    O105      1.21903      .   S
    Zr29   O106      1.21903      .   S
    Zr7    O106      1.21903      .   S
    Zr30   O107      1.19719      .   S
    Zr4    O107      1.19719      .   S
    Zr31   O108      1.19719      .   S
    Zr5    O108      1.19719      .   S
    Zr36   O109      1.21961      .   S
    Zr4    O109      1.21961      .   S
    Zr37   O110      1.21961      .   S
    Zr5    O110      1.21961      .   S
    Zr39   O111      1.20095      .   S
    Zr7    O111      1.20095      .   S
    Zr44   O112      1.21805      .   S
    Zr2    O112      1.21805      .   S
    Zr45   O113      1.21805      .   S
    Zr3    O113      1.21805      .   S
    Zr46   O114      1.20072      .   S
    Zr0    O114      1.20072      .   S
    Zr47   O115      1.20072      .   S
    Zr1    O115      1.20072      .   S
    Zr52   O116      1.21883      .   S
    Zr0    O116      1.21883      .   S
    Zr53   O117      1.21883      .   S
    Zr1    O117      1.21883      .   S
    Zr54   O118      1.19708      .   S
    Zr2    O118      1.19708      .   S
    Zr55   O119      1.19708      .   S
    Zr3    O119      1.19708      .   S
    N120   O121      0.62423      .   S
    Zr14   O121      1.33247      .   S
    N120   O122      1.36289      .   S
    Zr6    O122      2.55684  1_545   S
    N120   O123      1.31257      .   S
    Zr2    O123      2.40252  1_455   S
    N120   O124      0.67543      .   S
    Zr12   O124      1.37138      .   S
    N125   O126      1.31003      .   S
    Zr6    O126      2.39930  1_655   S
    N125   O127      1.36130      .   S
    Zr2    O127      2.55227      .   S
    N125   O128      0.62458      .   S
    Zr22   O128      1.33245      .   S
    N125   O129      0.67503      .   S
    Zr20   O129      1.37066      .   S
    N130   O131      1.36130      .   S
    Zr3    O131      2.55227      .   S
    N130   O132      0.67503      .   S
    Zr21   O132      1.37066      .   S
    N130   O133      0.62458      .   S
    Zr23   O133      1.33245      .   S
    N130   O134      1.31003      .   S
    Zr7    O134      2.39930  1_655   S
    N135   O136      0.62383      .   S
    Zr11   O136      1.33153      .   S
    N135   O137      1.35674      .   S
    Zr5    O137      2.53976  1_565   S
    N135   O138      0.67784      .   S
    Zr9    O138      1.37455      .   S
    N135   O139      0.67102      .   S
    Zr27   O139      1.46467      .   S
    N135   O140      1.31255      .   S
    Zr1    O140      2.40378      .   S
    N141   O142      0.67784      .   S
    Zr8    O142      1.37455      .   S
    N141   O143      0.62383      .   S
    Zr10   O143      1.33153      .   S
    N141   O144      1.31255      .   S
    Zr0    O144      2.40378      .   S
    N141   O145      1.35674      .   S
    Zr4    O145      2.53976  1_565   S
    N146   O147      0.62428      .   S
    Zr19   O147      1.33251      .   S
    N146   O148      0.67796      .   S
    Zr17   O148      1.37499      .   S
    N146   O149      1.35796      .   S
    Zr1    O149      2.54226      .   S
    N146   O150      1.31452      .   S
    Zr5    O150      2.40594      .   S
    N151   O152      0.62423      .   S
    Zr15   O152      1.33247      .   S
    N151   O153      0.67543      .   S
    Zr13   O153      1.37138      .   S
    N151   O154      1.31257      .   S
    Zr3    O154      2.40252  1_455   S
    N151   O155      1.36289      .   S
    Zr7    O155      2.55684  1_545   S
    N156   O157      0.67795      .   S
    Zr16   O157      1.37499      .   S
    N156   O158      0.62428      .   S
    Zr18   O158      1.33251      .   S
    N156   O159      1.31452      .   S
    Zr4    O159      2.40594      .   S
    N156   O160      1.35796      .   S
    Zr0    O160      2.54226      .   S
