# CIF file generated by openbabel 2.4.90, see http://openbabel.sf.net
data_I
_chemical_name_common ''
_cell_length_a 8.919
_cell_length_b 10.1035
_cell_length_c 15.051
_cell_angle_alpha 90.021
_cell_angle_beta 90.193
_cell_angle_gamma 90.165
_space_group_name_H-M_alt 'P 1'
_space_group_name_Hall 'P 1'
loop_
    _symmetry_equiv_pos_as_xyz
    x,y,z
loop_
    _atom_site_label
    _atom_site_type_symbol
    _atom_site_fract_x
    _atom_site_fract_y
    _atom_site_fract_z
    _atom_site_occupancy
    N0      N    0.77506   0.26708   0.30234   1.000
    N1      N    0.22153   0.23321   0.80209   1.000
    N2      N    0.27270   0.73300   0.19906   1.000
    N3      N    0.72295   0.76716   0.70037   1.000
    Zr4     Zr   0.68230   0.05949   0.39126   1.000
    O5      O    0.56987   0.96149   0.32995   1.000
    O6      O    0.69000   0.97296   0.48449   1.000
    Zr7     Zr   0.18045   0.94002   0.10971   1.000
    O8      O    0.06928   0.03821   0.17110   1.000
    O9      O    0.18821   0.02674   0.01687   1.000
    Zr10    Zr   0.31543   0.44010   0.89161   1.000
    O11     O    0.30747   0.52693   0.98435   1.000
    O12     O    0.42709   0.53825   0.83051   1.000
    Zr13    Zr   0.81461   0.55997   0.61118   1.000
    O14     O    0.80750   0.47315   0.51811   1.000
    O15     O    0.92601   0.46190   0.67222   1.000
    O16     O    0.20819   0.87335   0.13513   1.000
    O17     O    0.78711   0.62671   0.63654   1.000
    O18     O    0.71015   0.12632   0.36597   1.000
    O19     O    0.28723   0.37344   0.86614   1.000
loop_
    _geom_bond_atom_site_label_1
    _geom_bond_atom_site_label_2
    _geom_bond_distance
    _geom_bond_site_symmetry_2
    _ccdc_geom_bond_type
    Zr4    O5        1.68068  1_545   S
    N2     O5        4.02013      .   S
    Zr4    O6        1.65483  1_545   S
    N3     O6        3.86904      .   S
    Zr7    O8        1.68295  1_565   S
    N0     O8        4.02513  1_655   S
    Zr7    O9        1.65121  1_565   S
    N1     O9        3.85981  1_556   S
    Zr10   O11       1.65010      .   S
    N2     O11       3.85754  1_554   S
    Zr10   O12       1.67987      .   S
    N3     O12       4.01894      .   S
    Zr13   O14       1.65340      .   S
    N0     O14       3.86662      .   S
    Zr13   O15       1.67733      .   S
    N1     O15       4.01372  1_455   S
    Zr7    O16       0.81347      .   S
    N2     O16       1.80821      .   S
    N3     O17       1.80875      .   S
    Zr13   O17       0.81355      .   S
    N0     O18       1.80964      .   S
    Zr4    O18       0.81389      .   S
    N1     O19       1.80853      .   S
    Zr10   O19       0.81362      .   S
