# CIF file generated by openbabel 2.4.90, see http://openbabel.sf.net
data_I
_chemical_name_common ''
_cell_length_a 8.919
_cell_length_b 10.1035
_cell_length_c 15.051
_cell_angle_alpha 90.021
_cell_angle_beta 90.193
_cell_angle_gamma 90.165
_space_group_name_H-M_alt 'P 1'
_space_group_name_Hall 'P 1'
loop_
    _symmetry_equiv_pos_as_xyz
    x,y,z
loop_
    _atom_site_label
    _atom_site_type_symbol
    _atom_site_fract_x
    _atom_site_fract_y
    _atom_site_fract_z
    _atom_site_occupancy
    N0      N    0.77506   0.26708   0.30234   1.000
    N1      N    0.22153   0.23321   0.80209   1.000
    N2      N    0.27270   0.73300   0.19906   1.000
    N3      N    0.72295   0.76716   0.70037   1.000
    Zr4     Zr   0.68230   0.05949   0.39126   1.000
    O5      O    0.56987   0.96149   0.32995   1.000
    O6      O    0.71555   0.13397   0.37891   1.000
    O7      O    0.67908   0.12613   0.36595   1.000
    O8      O    0.73464   0.10865   0.36322   1.000
    O9      O    0.71132   0.13654   0.35582   1.000
    O10     O    0.69000   0.97296   0.48449   1.000
    Zr11    Zr   0.18045   0.94002   0.10971   1.000
    O12     O    0.20927   0.86320   0.14532   1.000
    O13     O    0.17708   0.87348   0.13506   1.000
    O14     O    0.23273   0.89104   0.13786   1.000
    O15     O    0.21369   0.86568   0.12227   1.000
    O16     O    0.06928   0.03821   0.17110   1.000
    O17     O    0.18821   0.02674   0.01687   1.000
    Zr18    Zr   0.31543   0.44010   0.89161   1.000
    O19     O    0.30747   0.52693   0.98435   1.000
    O20     O    0.42709   0.53825   0.83051   1.000
    O21     O    0.28597   0.36336   0.85590   1.000
    O22     O    0.28203   0.36565   0.87902   1.000
    O23     O    0.26268   0.39111   0.86354   1.000
    O24     O    0.31822   0.37365   0.86611   1.000
    Zr25    Zr   0.81461   0.55997   0.61118   1.000
    O26     O    0.78598   0.63686   0.64674   1.000
    O27     O    0.76243   0.60910   0.63911   1.000
    O28     O    0.78190   0.63441   0.62365   1.000
    O29     O    0.81812   0.62646   0.63666   1.000
    O30     O    0.80750   0.47315   0.51811   1.000
    O31     O    0.92601   0.46190   0.67222   1.000
loop_
    _geom_bond_atom_site_label_1
    _geom_bond_atom_site_label_2
    _geom_bond_distance
    _geom_bond_site_symmetry_2
    _ccdc_geom_bond_type
    Zr4    O5        1.68068  1_545   S
    N2     O5        4.02013      .   S
    Zr4    O6        0.82946      .   S
    N0     O6        1.84919      .   S
    Zr4    O7        0.77428      .   S
    N0     O7        1.91750      .   S
    Zr4    O8        0.80187      .   S
    N0     O8        1.87922      .   S
    Zr4    O9        0.97865      .   S
    N0     O9        1.64618      .   S
    Zr4    O10       1.65483  1_545   S
    N3     O10       3.86904      .   S
    Zr11   O12       0.97786      .   S
    N2     O12       1.64517      .   S
    Zr11   O13       0.77363      .   S
    N2     O13       1.91629      .   S
    Zr11   O14       0.80118      .   S
    N2     O14       1.87807      .   S
    Zr11   O15       0.82986      .   S
    N2     O15       1.84686      .   S
    Zr11   O16       1.68295  1_565   S
    N0     O16       4.02513  1_655   S
    Zr11   O17       1.65121  1_565   S
    N1     O17       3.85981  1_556   S
    Zr18   O19       1.65010      .   S
    N2     O19       3.85754  1_554   S
    Zr18   O20       1.67987      .   S
    N3     O20       4.01894      .   S
    Zr18   O21       0.97809      .   S
    N1     O21       1.64540      .   S
    Zr18   O22       0.82984      .   S
    N1     O22       1.84750      .   S
    Zr18   O23       0.80126      .   S
    N1     O23       1.87846      .   S
    Zr18   O24       0.77377      .   S
    N1     O24       1.91626      .   S
    Zr25   O26       0.97822      .   S
    N3     O26       1.64538      .   S
    Zr25   O27       0.80134      .   S
    N3     O27       1.87852      .   S
    Zr25   O28       0.82918      .   S
    N3     O28       1.84817      .   S
    Zr25   O29       0.77387      .   S
    N3     O29       1.91636      .   S
    Zr25   O30       1.65340      .   S
    N0     O30       3.86662      .   S
    Zr25   O31       1.67733      .   S
    N1     O31       4.01372  1_455   S
