# CIF file generated by openbabel 2.4.90, see http://openbabel.sf.net
data_I
_chemical_name_common ''
_cell_length_a 8.919
_cell_length_b 10.1035
_cell_length_c 15.051
_cell_angle_alpha 90.021
_cell_angle_beta 90.193
_cell_angle_gamma 90.165
_space_group_name_H-M_alt 'P 1'
_space_group_name_Hall 'P 1'
loop_
    _symmetry_equiv_pos_as_xyz
    x,y,z
loop_
    _atom_site_label
    _atom_site_type_symbol
    _atom_site_fract_x
    _atom_site_fract_y
    _atom_site_fract_z
    _atom_site_occupancy
    C0      C    0.68230   0.05949   0.39126   1.000
    C1      C    0.31543   0.44010   0.89161   1.000
    C2      C    0.18045   0.94002   0.10971   1.000
    C3      C    0.81461   0.55997   0.61118   1.000
    C4      C    0.00014   0.13518   0.28479   1.000
    C5      C    0.99594   0.36474   0.78589   1.000
    C6      C    0.49852   0.86471   0.21634   1.000
    C7      C    0.49662   0.63548   0.71680   1.000
    C8      C    0.80652   0.15008   0.17656   1.000
    C9      C    0.89635   0.30702   0.18648   1.000
    C10     C    0.86940   0.42834   0.31384   1.000
    C11     C    0.67880   0.45361   0.33450   1.000
    C12     C    0.57608   0.37567   0.20550   1.000
    C13     C    0.57158   0.20166   0.18800   1.000
    C14     C    0.19443   0.26949   0.32122   1.000
    C15     C    0.18748   0.35179   0.67690   1.000
    C16     C    0.09826   0.19449   0.68615   1.000
    C17     C    0.12955   0.07045   0.81202   1.000
    C18     C    0.32041   0.04760   0.83365   1.000
    C19     C    0.41950   0.12627   0.70406   1.000
    C20     C    0.42373   0.30059   0.68775   1.000
    C21     C    0.80303   0.23007   0.82181   1.000
    C22     C    0.30613   0.85043   0.32475   1.000
    C23     C    0.39479   0.69340   0.31493   1.000
    C24     C    0.36226   0.56888   0.18946   1.000
    C25     C    0.17157   0.54836   0.16559   1.000
    C26     C    0.07341   0.62569   0.29641   1.000
    C27     C    0.07019   0.79996   0.31285   1.000
    C28     C    0.69111   0.73013   0.17981   1.000
    C29     C    0.68975   0.64929   0.82559   1.000
    C30     C    0.60100   0.80632   0.81604   1.000
    C31     C    0.63146   0.92990   0.68951   1.000
    C32     C    0.82241   0.95296   0.66840   1.000
    C33     C    0.92215   0.87479   0.79829   1.000
    C34     C    0.92514   0.70060   0.81501   1.000
    C35     C    0.30373   0.77008   0.68141   1.000
    C36     C    0.85150   0.22232   0.22441   1.000
    C37     C    0.76840   0.37933   0.33951   1.000
    C38     C    0.79183   0.35259   0.43817   1.000
    C39     C    0.58389   0.27905   0.23907   1.000
    C40     C    0.45166   0.25860   0.30212   1.000
    C41     C    0.14369   0.27883   0.72444   1.000
    C42     C    0.22958   0.12071   0.83834   1.000
    C43     C    0.20602   0.14650   0.93697   1.000
    C44     C    0.41201   0.22244   0.73826   1.000
    C45     C    0.54476   0.24189   0.80168   1.000
    C46     C    0.35002   0.77805   0.27697   1.000
    C47     C    0.26407   0.62049   0.16232   1.000
    C48     C    0.29065   0.64725   0.06405   1.000
    C49     C    0.08169   0.72187   0.26229   1.000
    C50     C    0.94927   0.74146   0.19878   1.000
    C51     C    0.64559   0.72190   0.77791   1.000
    C52     C    0.73121   0.87971   0.66357   1.000
    C53     C    0.70741   0.85338   0.56485   1.000
    C54     C    0.91378   0.77847   0.76427   1.000
    C55     C    0.04612   0.75834   0.70133   1.000
    C56     C    0.72896   0.26076   0.28557   1.000
    C57     C    0.26756   0.23995   0.78500   1.000
    C58     C    0.22647   0.73950   0.21589   1.000
    C59     C    0.76894   0.76072   0.71728   1.000
    C60     C    0.76280   0.24015   0.47026   1.000
    C61     C    0.83686   0.45118   0.48433   1.000
    C62     C    0.33194   0.31905   0.28452   1.000
    C63     C    0.47106   0.17743   0.36661   1.000
    C64     C    0.08662   0.23806   0.34337   1.000
    C65     C    0.10185   0.07142   0.21557   1.000
    C66     C    0.91550   0.03764   0.34475   1.000
    C67     C    0.23604   0.25831   0.96994   1.000
    C68     C    0.16036   0.04744   0.98222   1.000
    C69     C    0.66428   0.18148   0.78419   1.000
    C70     C    0.52559   0.32227   0.86664   1.000
    C71     C    0.91111   0.26074   0.84407   1.000
    C72     C    0.89202   0.42889   0.71768   1.000
    C73     C    0.08126   0.46192   0.84611   1.000
    C74     C    0.26184   0.75936   0.03148   1.000
    C75     C    0.33719   0.54889   0.01859   1.000
    C76     C    0.82936   0.68112   0.21645   1.000
    C77     C    0.96894   0.82179   0.13383   1.000
    C78     C    0.58294   0.76102   0.15810   1.000
    C79     C    0.60207   0.92847   0.28519   1.000
    C80     C    0.41414   0.96222   0.15622   1.000
    C81     C    0.73626   0.74113   0.53255   1.000
    C82     C    0.66259   0.95194   0.51887   1.000
    C83     C    0.16623   0.81869   0.71900   1.000
    C84     C    0.02603   0.67747   0.63663   1.000
    C85     C    0.41131   0.73943   0.65892   1.000
    C86     C    0.39367   0.57116   0.78530   1.000
    C87     C    0.58053   0.53858   0.65627   1.000
    O88     O    0.31392   0.59807   0.04132   1.000
    O89     O    0.32631   0.49450   0.95510   1.000
    O90     O    0.27625   0.70330   0.04776   1.000
    O91     O    0.22115   0.84969   0.07059   1.000
    O92     O    0.27736   0.63387   0.11318   1.000
    O93     O    0.07470   0.88090   0.12177   1.000
    O94     O    0.29730   0.95112   0.13297   1.000
    O95     O    0.14115   0.00572   0.16264   1.000
    O96     O    0.20346   0.83976   0.16280   1.000
    O97     O    0.17041   0.99373   0.04597   1.000
    O98     O    0.95910   0.78163   0.16631   1.000
    O99     O    0.45633   0.91347   0.18628   1.000
    O100    O    0.63702   0.74558   0.16895   1.000
    O101    O    0.54073   0.81287   0.18722   1.000
    O102    O    0.21782   0.58442   0.16395   1.000
    O103    O    0.31316   0.59469   0.17589   1.000
    O104    O    0.24527   0.67999   0.18910   1.000
    O105    O    0.82901   0.18620   0.20048   1.000
    O106    O    0.87393   0.26467   0.20544   1.000
    O107    O    0.57773   0.24035   0.21353   1.000
    O108    O    0.88931   0.71129   0.20762   1.000
    O109    O    0.01548   0.73167   0.23054   1.000
    O110    O    0.57998   0.32736   0.22228   1.000
    O111    O    0.05099   0.10330   0.25018   1.000
    O112    O    0.15408   0.73068   0.23909   1.000
    O113    O    0.28825   0.75878   0.24643   1.000
    O114    O    0.42427   0.82138   0.24665   1.000
    O115    O    0.55029   0.89659   0.25077   1.000
    O116    O    0.92582   0.17875   0.25460   1.000
    O117    O    0.79023   0.24154   0.25499   1.000
    O118    O    0.65643   0.26991   0.26232   1.000
    O119    O    0.51777   0.26882   0.27060   1.000
    O120    O    0.07755   0.67378   0.27935   1.000
    O121    O    0.07594   0.76092   0.28757   1.000
    O122    O    0.37241   0.73573   0.29595   1.000
    O123    O    0.32808   0.81424   0.30086   1.000
    O124    O    0.39180   0.28882   0.29332   1.000
    O125    O    0.04338   0.18662   0.31408   1.000
    O126    O    0.95782   0.08641   0.31477   1.000
    O127    O    0.64218   0.99398   0.33823   1.000
    O128    O    0.74868   0.32005   0.31254   1.000
    O129    O    0.70563   0.16013   0.33842   1.000
    O130    O    0.46136   0.21802   0.33437   1.000
    O131    O    0.81890   0.40383   0.32668   1.000
    O132    O    0.14052   0.25377   0.33230   1.000
    O133    O    0.72360   0.41647   0.33701   1.000
    O134    O    0.78011   0.36596   0.38884   1.000
    O135    O    0.79890   0.04856   0.36801   1.000
    O136    O    0.57668   0.11846   0.37894   1.000
    O137    O    0.72255   0.14982   0.43076   1.000
    O138    O    0.67244   0.00571   0.45507   1.000
    O139    O    0.77732   0.29637   0.45422   1.000
    O140    O    0.81435   0.40188   0.46125   1.000
    O141    O    0.82574   0.50558   0.54776   1.000
    O142    O    0.68500   0.90266   0.54186   1.000
    O143    O    0.72183   0.79725   0.54870   1.000
    O144    O    0.77543   0.65055   0.57187   1.000
    O145    O    0.71931   0.86655   0.61421   1.000
    O146    O    0.92032   0.61872   0.62390   1.000
    O147    O    0.69757   0.54928   0.63373   1.000
    O148    O    0.79178   0.66035   0.66423   1.000
    O149    O    0.85331   0.49443   0.66443   1.000
    O150    O    0.03608   0.71790   0.66898   1.000
    O151    O    0.53857   0.58703   0.68654   1.000
    O152    O    0.35752   0.75476   0.67017   1.000
    O153    O    0.45396   0.68746   0.68786   1.000
    O154    O    0.77681   0.91634   0.66598   1.000
    O155    O    0.68133   0.90481   0.67654   1.000
    O156    O    0.75007   0.82022   0.69042   1.000
    O157    O    0.16559   0.31531   0.70067   1.000
    O158    O    0.12098   0.23666   0.70530   1.000
    O159    O    0.41787   0.26152   0.71301   1.000
    O160    O    0.10618   0.78851   0.71017   1.000
    O161    O    0.97995   0.76840   0.73280   1.000
    O162    O    0.41576   0.17436   0.72116   1.000
    O163    O    0.57110   0.67869   0.74736   1.000
    O164    O    0.44514   0.60332   0.75105   1.000
    O165    O    0.84136   0.76960   0.74077   1.000
    O166    O    0.70727   0.74131   0.74760   1.000
    O167    O    0.94398   0.39681   0.75178   1.000
    O168    O    0.20562   0.25939   0.75472   1.000
    O169    O    0.06982   0.32178   0.75517   1.000
    O170    O    0.33978   0.23119   0.76163   1.000
    O171    O    0.47839   0.23217   0.76997   1.000
    O172    O    0.91796   0.82663   0.78128   1.000
    O173    O    0.91946   0.73954   0.78964   1.000
    O174    O    0.62330   0.76411   0.79698   1.000
    O175    O    0.66767   0.68559   0.80175   1.000
    O176    O    0.60452   0.21168   0.79294   1.000
    O177    O    0.24857   0.18033   0.81167   1.000
    O178    O    0.29149   0.34002   0.83830   1.000
    O179    O    0.35455   0.50563   0.83846   1.000
    O180    O    0.95352   0.31274   0.81498   1.000
    O181    O    0.03860   0.41333   0.81600   1.000
    O182    O    0.53518   0.28208   0.83416   1.000
    O183    O    0.17957   0.09558   0.82518   1.000
    O184    O    0.85707   0.24541   0.83294   1.000
    O185    O    0.27500   0.08416   0.83599   1.000
    O186    O    0.21780   0.13361   0.88765   1.000
    O187    O    0.19834   0.45101   0.86886   1.000
    O188    O    0.42051   0.38118   0.87913   1.000
    O189    O    0.27574   0.34921   0.93077   1.000
    O190    O    0.22103   0.20241   0.95345   1.000
    O191    O    0.18319   0.09697   0.95959   1.000
loop_
    _geom_bond_atom_site_label_1
    _geom_bond_atom_site_label_2
    _geom_bond_distance
    _geom_bond_site_symmetry_2
    _ccdc_geom_bond_type
    C75    O88       0.63867      .   S
    C48    O88       0.63867      .   S
    C75    O89       1.10602  1_554   S
    C1     O89       1.10602      .   S
    C74    O90       0.63058      .   S
    C48    O90       0.63058      .   S
    C74    O91       1.14641      .   S
    C2     O91       1.14641      .   S
    C48    O92       0.76148      .   S
    C47    O92       0.76148      .   S
    C2     O93       1.13019      .   S
    C77    O93       1.13019  1_655   S
    C2     O94       1.10362      .   S
    C80    O94       1.10362      .   S
    C2     O95       1.09591  1_565   S
    C65    O95       1.09591      .   S
    C2     O96       1.30667      .   S
    C58    O96       1.30667      .   S
    C2     O97       1.10597      .   S
    C68    O97       1.10597  1_546   S
    C77    O98       0.64150      .   S
    C50    O98       0.64150      .   S
    C80    O99       0.76747      .   S
    C6     O99       0.76747      .   S
    C78    O100      0.53261      .   S
    C28    O100      0.53261      .   S
    C78    O101      0.78122      .   S
    C6     O101      0.78122      .   S
    C47    O102      0.55020      .   S
    C25    O102      0.55020      .   S
    C47    O103      0.54911      .   S
    C24    O103      0.54911      .   S
    C47    O104      0.74361      .   S
    C58    O104      0.74361      .   S
    C8     O105      0.54965      .   S
    C36    O105      0.54965      .   S
    C9     O106      0.55186      .   S
    C36    O106      0.55186      .   S
    C13    O107      0.55064      .   S
    C39    O107      0.55064      .   S
    C50    O108      0.62936      .   S
    C76    O108      0.62936      .   S
    C50    O109      0.76512  1_655   S
    C49    O109      0.76512      .   S
    C12    O110      0.55084      .   S
    C39    O110      0.55084      .   S
    C65    O111      0.76362      .   S
    C4     O111      0.76362      .   S
    C58    O112      0.74025      .   S
    C49    O112      0.74025      .   S
    C58    O113      0.74186      .   S
    C46    O113      0.74186      .   S
    C6     O114      0.91590      .   S
    C46    O114      0.91590      .   S
    C6     O115      0.76348      .   S
    C79    O115      0.76348      .   S
    C36    O116      0.91619      .   S
    C4     O116      0.91619  1_455   S
    C36    O117      0.74192      .   S
    C56    O117      0.74192      .   S
    C39    O118      0.74051      .   S
    C56    O118      0.74051      .   S
    C39    O119      0.76494      .   S
    C40    O119      0.76494      .   S
    C49    O120      0.55083      .   S
    C26    O120      0.55083      .   S
    C49    O121      0.55063      .   S
    C27    O121      0.55063      .   S
    C46    O122      0.55187      .   S
    C23    O122      0.55187      .   S
    C46    O123      0.54963      .   S
    C22    O123      0.54963      .   S
    C62    O124      0.62955      .   S
    C40    O124      0.62955      .   S
    C4     O125      0.78147      .   S
    C64    O125      0.78147      .   S
    C4     O126      0.76754  1_455   S
    C66    O126      0.76754      .   S
    C79    O127      1.09524      .   S
    C0     O127      1.09524  1_545   S
    C56    O128      0.74375      .   S
    C37    O128      0.74375      .   S
    C56    O129      1.30778      .   S
    C0     O129      1.30778      .   S
    C40    O130      0.64128      .   S
    C63    O130      0.64128      .   S
    C10    O131      0.54906      .   S
    C37    O131      0.54906      .   S
    C14    O132      0.53319      .   S
    C64    O132      0.53319      .   S
    C11    O133      0.55011      .   S
    C37    O133      0.55011      .   S
    C37    O134      0.76159      .   S
    C38    O134      0.76159      .   S
    C66    O135      1.10424      .   S
    C0     O135      1.10424      .   S
    C63    O136      1.13088      .   S
    C0     O136      1.13088      .   S
    C0     O137      1.14524      .   S
    C60    O137      1.14524      .   S
    C0     O138      1.10714      .   S
    C82    O138      1.10714  1_565   S
    C38    O139      0.63060      .   S
    C60    O139      0.63060      .   S
    C38    O140      0.63868      .   S
    C61    O140      0.63868      .   S
    C61    O141      1.10622      .   S
    C3     O141      1.10622      .   S
    C82    O142      0.63858      .   S
    C53    O142      0.63858      .   S
    C81    O143      0.63066      .   S
    C53    O143      0.63066      .   S
    C81    O144      1.14478      .   S
    C3     O144      1.14478      .   S
    C53    O145      0.76170      .   S
    C52    O145      0.76170      .   S
    C3     O146      1.12848      .   S
    C84    O146      1.12848  1_455   S
    C3     O147      1.10375      .   S
    C87    O147      1.10375      .   S
    C3     O148      1.30735      .   S
    C59    O148      1.30735      .   S
    C3     O149      1.09539      .   S
    C72    O149      1.09539      .   S
    C84    O150      0.64136      .   S
    C55    O150      0.64136      .   S
    C87    O151      0.76758      .   S
    C7     O151      0.76758      .   S
    C85    O152      0.53265      .   S
    C35    O152      0.53265      .   S
    C85    O153      0.78130      .   S
    C7     O153      0.78130      .   S
    C52    O154      0.55016      .   S
    C32    O154      0.55016      .   S
    C52    O155      0.54905      .   S
    C31    O155      0.54905      .   S
    C52    O156      0.74389      .   S
    C59    O156      0.74389      .   S
    C15    O157      0.54967      .   S
    C41    O157      0.54967      .   S
    C16    O158      0.55190      .   S
    C41    O158      0.55190      .   S
    C20    O159      0.55060      .   S
    C44    O159      0.55060      .   S
    C55    O160      0.62934      .   S
    C83    O160      0.62934      .   S
    C55    O161      0.76497  1_455   S
    C54    O161      0.76497      .   S
    C19    O162      0.55085      .   S
    C44    O162      0.55085      .   S
    C7     O163      0.91623      .   S
    C51    O163      0.91623      .   S
    C7     O164      0.76348      .   S
    C86    O164      0.76348      .   S
    C59    O165      0.74050      .   S
    C54    O165      0.74050      .   S
    C59    O166      0.74190      .   S
    C51    O166      0.74190      .   S
    C72    O167      0.76334      .   S
    C5     O167      0.76334      .   S
    C41    O168      0.74185      .   S
    C57    O168      0.74185      .   S
    C41    O169      0.91645      .   S
    C5     O169      0.91645  1_655   S
    C44    O170      0.74051      .   S
    C57    O170      0.74051      .   S
    C44    O171      0.76529      .   S
    C45    O171      0.76529      .   S
    C54    O172      0.55083      .   S
    C33    O172      0.55083      .   S
    C54    O173      0.55063      .   S
    C34    O173      0.55063      .   S
    C51    O174      0.55186      .   S
    C30    O174      0.55186      .   S
    C51    O175      0.54966      .   S
    C29    O175      0.54966      .   S
    C69    O176      0.62923      .   S
    C45    O176      0.62923      .   S
    C57    O177      0.74342      .   S
    C42    O177      0.74342      .   S
    C57    O178      1.30718      .   S
    C1     O178      1.30718      .   S
    C86    O179      1.09596      .   S
    C1     O179      1.09596      .   S
    C5     O180      0.78167      .   S
    C71    O180      0.78167      .   S
    C5     O181      0.76731  1_655   S
    C73    O181      0.76731      .   S
    C45    O182      0.64149      .   S
    C70    O182      0.64149      .   S
    C17    O183      0.54904      .   S
    C42    O183      0.54904      .   S
    C21    O184      0.53230      .   S
    C71    O184      0.53230      .   S
    C18    O185      0.55014      .   S
    C42    O185      0.55014      .   S
    C42    O186      0.76123      .   S
    C43    O186      0.76123      .   S
    C73    O187      1.10370      .   S
    C1     O187      1.10370      .   S
    C70    O188      1.12798      .   S
    C1     O188      1.12798      .   S
    C1     O189      1.14719      .   S
    C67    O189      1.14719      .   S
    C43    O190      0.63069      .   S
    C67    O190      0.63069      .   S
    C43    O191      0.63862      .   S
    C68    O191      0.63862      .   S
