# CIF file generated by openbabel 2.4.90, see http://openbabel.sf.net
data_I
_chemical_name_common ''
_cell_length_a 12.889
_cell_length_b 14.509
_cell_length_c 14.526
_cell_angle_alpha 78.448
_cell_angle_beta 63.448
_cell_angle_gamma 63.512
_space_group_name_H-M_alt 'P 1'
_space_group_name_Hall 'P 1'
loop_
    _symmetry_equiv_pos_as_xyz
    x,y,z
loop_
    _atom_site_label
    _atom_site_type_symbol
    _atom_site_fract_x
    _atom_site_fract_y
    _atom_site_fract_z
    _atom_site_occupancy
    N0      N    0.65074   0.35205   0.90585   1.000
    N1      N    0.91028   0.64891   0.09077   1.000
    N2      N    0.25077   0.40733   0.14927   1.000
    N3      N    0.80820   0.59253   0.85204   1.000
    Zr4     Zr   0.15028   0.00068   0.00014   1.000
    Zr5     Zr   0.40164   0.49951   0.49868   1.000
    O6      O    0.22032   0.54280   0.60385   1.000
    O7      O    0.49852   0.49812   0.59698   1.000
    O8      O    0.08479   0.89948   0.02037   1.000
    O9      O    0.18048   0.11536   0.04100   1.000
    O10     O    0.08644   0.88553   0.95969   1.000
    O11     O    0.00422   0.10187   0.97885   1.000
    O12     O    0.54699   0.54033   0.38354   1.000
    O13     O    0.35596   0.47880   0.39811   1.000
    O14     O    0.47259   0.45914   0.61347   1.000
loop_
    _geom_bond_atom_site_label_1
    _geom_bond_atom_site_label_2
    _geom_bond_distance
    _geom_bond_site_symmetry_2
    _ccdc_geom_bond_type
    Zr5    O6        2.01819      .   S
    N3     O6        4.71547  1_655   S
    Zr5    O7        2.27135      .   S
    N3     O7        7.18795      .   S
    Zr4    O8        1.91480  1_545   S
    N1     O8        4.80309  1_655   S
    Zr4    O9        2.10995      .   S
    N2     O9        5.34838      .   S
    Zr4    O10       2.42194  1_544   S
    N3     O10       7.39273  1_655   S
    Zr4    O11       1.91533  1_554   S
    N0     O11       4.80448  1_655   S
    N1     O12       5.34669      .   S
    Zr5    O12       2.10936      .   S
    Zr5    O13       1.91663      .   S
    N2     O13       4.80791      .   S
    Zr5    O14       2.11051      .   S
    N0     O14       5.34952      .   S
