# CIF file generated by openbabel 2.4.90, see http://openbabel.sf.net
data_I
_chemical_name_common ''
_cell_length_a 12.889
_cell_length_b 14.509
_cell_length_c 14.526
_cell_angle_alpha 78.448
_cell_angle_beta 63.448
_cell_angle_gamma 63.512
_space_group_name_H-M_alt 'P 1'
_space_group_name_Hall 'P 1'
loop_
    _symmetry_equiv_pos_as_xyz
    x,y,z
loop_
    _atom_site_label
    _atom_site_type_symbol
    _atom_site_fract_x
    _atom_site_fract_y
    _atom_site_fract_z
    _atom_site_occupancy
    Zr0     Zr   0.45779   0.40771   0.47864   1.000
    Zr1     Zr   0.34548   0.59131   0.51871   1.000
    Zr2     Zr   0.18673   0.02101   0.90840   1.000
    Zr3     Zr   0.11383   0.98035   0.09188   1.000
    O4      O    0.40164   0.49951   0.49868   1.000
    O5      O    0.15028   0.00068   0.00014   1.000
    N6      N    0.65074   0.35205   0.90585   1.000
    O7      O    0.51358   0.46230   0.74059   1.000
    O8      O    0.57351   0.37523   0.71593   1.000
    O9      O    0.87505   0.21003   0.91289   1.000
    O10     O    0.84127   0.19607   0.00222   1.000
    N11     N    0.91028   0.64891   0.09077   1.000
    O12     O    0.71846   0.53762   0.25606   1.000
    O13     O    0.66622   0.62467   0.28074   1.000
    O14     O    0.99780   0.79126   0.08524   1.000
    O15     O    0.04079   0.80527   0.99595   1.000
    N16     N    0.25077   0.40733   0.14927   1.000
    O17     O    0.22465   0.24250   0.03834   1.000
    O18     O    0.19672   0.21758   0.12537   1.000
    O19     O    0.33385   0.41341   0.29069   1.000
    O20     O    0.28670   0.50278   0.30440   1.000
    N21     N    0.80820   0.59253   0.85204   1.000
    O22     O    0.00481   0.75792   0.96271   1.000
    O23     O    0.04037   0.78285   0.87575   1.000
    O24     O    0.03900   0.58610   0.70902   1.000
    O25     O    0.59540   0.49673   0.69529   1.000
loop_
    _geom_bond_atom_site_label_1
    _geom_bond_atom_site_label_2
    _geom_bond_distance
    _geom_bond_site_symmetry_2
    _ccdc_geom_bond_type
    Zr0    O4        1.22047      .   S
    Zr1    O4        1.22047      .   S
    Zr2    O5        1.22068  1_556   S
    Zr3    O5        1.22068  1_565   S
    N6     O7        3.34369      .   S
    Zr1    O7        4.33529      .   S
    N6     O8        3.24020      .   S
    Zr0    O8        4.20079      .   S
    N6     O9        2.73505      .   S
    Zr2    O9        3.69784  1_455   S
    N6     O10       3.15578  1_556   S
    Zr3    O10       4.06002  1_465   S
    N11    O12       3.34457      .   S
    Zr0    O12       4.33479      .   S
    N11    O13       3.23595      .   S
    Zr1    O13       4.19670      .   S
    N11    O14       2.73404      .   S
    Zr3    O14       3.69710  1_455   S
    N11    O15       3.15512  1_654   S
    Zr2    O15       4.05868  1_545   S
    N16    O17       3.34313      .   S
    Zr2    O17       4.33388  1_556   S
    N16    O18       3.23963      .   S
    Zr3    O18       4.20002  1_565   S
    N16    O19       2.73824      .   S
    Zr0    O19       3.70187      .   S
    N16    O20       3.15681      .   S
    Zr1    O20       4.06119      .   S
    N21    O22       5.03744  1_655   S
    Zr3    O22       4.97370  1_554   S
    N21    O23       5.03686  1_655   S
    Zr2    O23       4.79546  1_545   S
    N21    O24       2.73472  1_655   S
    Zr1    O24       3.69759      .   S
    N21    O25       4.98917      .   S
    Zr0    O25       4.83520      .   S
