# CIF file generated by openbabel 2.4.90, see http://openbabel.sf.net
data_I
_chemical_name_common ''
_cell_length_a 15.135
_cell_length_b 14.352
_cell_length_c 21.106
_cell_angle_alpha 89.952
_cell_angle_beta 90.003
_cell_angle_gamma 90.053
_space_group_name_H-M_alt 'P 1'
_space_group_name_Hall 'P 1'
loop_
    _symmetry_equiv_pos_as_xyz
    x,y,z
loop_
    _atom_site_label
    _atom_site_type_symbol
    _atom_site_fract_x
    _atom_site_fract_y
    _atom_site_fract_z
    _atom_site_occupancy
    Cd0     Cd   0.74958   0.60229   0.43404   1.000
    Cd1     Cd   0.25039   0.39773   0.56596   1.000
    Cd2     Cd   0.75039   0.39771   0.56597   1.000
    Cd3     Cd   0.25001   0.10121   0.06592   1.000
    Cd4     Cd   0.74994   0.10120   0.06593   1.000
    Cd5     Cd   0.24957   0.89879   0.93409   1.000
    Cd6     Cd   0.74956   0.89884   0.93408   1.000
    H7      H    0.08408   0.47070   0.38600   1.000
    H8      H    0.58406   0.47072   0.38607   1.000
    H9      H    0.08387   0.72028   0.48547   1.000
    H10     H    0.58386   0.72027   0.48549   1.000
    H11     H    0.08442   0.52965   0.61418   1.000
    H12     H    0.58441   0.52961   0.61418   1.000
    H13     H    0.08509   0.27986   0.51496   1.000
    H14     H    0.58507   0.27986   0.51491   1.000
    H15     H    0.41592   0.96870   0.11372   1.000
    H16     H    0.91592   0.96889   0.11367   1.000
    H17     H    0.41533   0.22018   0.01619   1.000
    H18     H    0.91534   0.22031   0.01600   1.000
    H19     H    0.41497   0.03081   0.88653   1.000
    H20     H    0.91498   0.03084   0.88654   1.000
    H21     H    0.41550   0.77952   0.98423   1.000
    H22     H    0.91545   0.77951   0.98419   1.000
    H23     H    0.41592   0.52929   0.61394   1.000
    H24     H    0.91589   0.52932   0.61393   1.000
    H25     H    0.41611   0.27975   0.51451   1.000
    H26     H    0.91610   0.27974   0.51456   1.000
    H27     H    0.41556   0.47039   0.38582   1.000
    H28     H    0.91555   0.47038   0.38583   1.000
    H29     H    0.41490   0.72015   0.48509   1.000
    H30     H    0.91488   0.72016   0.48506   1.000
    H31     H    0.08346   0.03129   0.88624   1.000
    Cd32    Cd   0.24959   0.60229   0.43405   1.000
    H33     H    0.58342   0.03129   0.88621   1.000
    H34     H    0.08446   0.77990   0.98384   1.000
    H35     H    0.58448   0.77994   0.98387   1.000
    H36     H    0.08440   0.96921   0.11350   1.000
    H37     H    0.58437   0.96904   0.11360   1.000
    H38     H    0.08433   0.22041   0.01574   1.000
    H39     H    0.58433   0.22029   0.01588   1.000
    H40     H    0.24872   0.66297   0.09269   1.000
    H41     H    0.74874   0.66297   0.09267   1.000
    H42     H    0.24971   0.93461   0.18010   1.000
    H43     H    0.74970   0.93461   0.18000   1.000
    H44     H    0.25047   0.85969   0.28600   1.000
    H45     H    0.75045   0.85969   0.28603   1.000
    H46     H    0.25080   0.33699   0.90733   1.000
    H47     H    0.75024   0.33704   0.90734   1.000
    H48     H    0.25015   0.06538   0.81989   1.000
    H49     H    0.75002   0.06539   0.81990   1.000
    H50     H    0.24960   0.14033   0.71395   1.000
    H51     H    0.74968   0.14030   0.71399   1.000
    H52     H    0.24993   0.16388   0.40748   1.000
    H53     H    0.74996   0.16388   0.40740   1.000
    H54     H    0.24971   0.43455   0.31845   1.000
    H55     H    0.74968   0.43454   0.31844   1.000
    H56     H    0.25006   0.35848   0.21291   1.000
    H57     H    0.75007   0.35846   0.21290   1.000
    H58     H    0.25006   0.83613   0.59253   1.000
    H59     H    0.74996   0.83613   0.59253   1.000
    H60     H    0.25032   0.56546   0.68156   1.000
    H61     H    0.75028   0.56547   0.68157   1.000
    H62     H    0.24998   0.64154   0.78711   1.000
    H63     H    0.74992   0.64155   0.78711   1.000
    C64     C    0.04572   0.52579   0.40857   1.000
    C65     C    0.54570   0.52580   0.40857   1.000
    C66     C    0.04548   0.66448   0.46360   1.000
    C67     C    0.54547   0.66447   0.46368   1.000
    C68     C    0.04633   0.47439   0.59157   1.000
    C69     C    0.54632   0.47436   0.59156   1.000
    C70     C    0.04656   0.33566   0.53654   1.000
    C71     C    0.54654   0.33565   0.53650   1.000
    C72     C    0.45402   0.02436   0.09152   1.000
    C73     C    0.95401   0.02452   0.09144   1.000
    C74     C    0.45385   0.16402   0.03743   1.000
    C75     C    0.95384   0.16414   0.03730   1.000
    C76     C    0.45337   0.97538   0.90865   1.000
    C77     C    0.95337   0.97540   0.90865   1.000
    C78     C    0.45378   0.83579   0.96283   1.000
    C79     C    0.95375   0.83578   0.96200   1.000
    C80     C    0.45427   0.47421   0.59144   1.000
    C81     C    0.95425   0.47424   0.59144   1.000
    C82     C    0.45450   0.33554   0.53632   1.000
    C83     C    0.95449   0.33554   0.53635   1.000
    C84     C    0.45365   0.52564   0.40845   1.000
    C85     C    0.95364   0.52563   0.40845   1.000
    C86     C    0.45343   0.66435   0.46350   1.000
    C87     C    0.95341   0.66436   0.46348   1.000
    C88     C    0.04545   0.97561   0.90849   1.000
    C89     C    0.54542   0.97562   0.90849   1.000
    C90     C    0.04582   0.83597   0.96260   1.000
    C91     C    0.54582   0.83599   0.96263   1.000
    C92     C    0.04609   0.02467   0.09135   1.000
    C93     C    0.54607   0.02450   0.09143   1.000
    C94     C    0.04592   0.16424   0.03716   1.000
    C95     C    0.54590   0.16412   0.03728   1.000
    C96     C    0.25010   0.71996   0.25050   1.000
    C97     C    0.75009   0.71996   0.25040   1.000
    C98     C    0.24964   0.66618   0.19503   1.000
    C99     C    0.74963   0.66617   0.19501   1.000
    O100    O    0.82261   0.02365   0.30541   1.000
    O101    O    0.24804   0.59005   0.32201   1.000
    O102    O    0.74802   0.59005   0.32200   1.000
    O103    O    0.25198   0.73387   0.36302   1.000
    C104    C    0.24913   0.70603   0.13512   1.000
    C105    C    0.74914   0.70602   0.13511   1.000
    C106    C    0.24919   0.80341   0.12917   1.000
    C107    C    0.74920   0.80340   0.12916   1.000
    C108    C    0.24970   0.85892   0.18382   1.000
    C109    C    0.74970   0.85892   0.18380   1.000
    C110    C    0.25014   0.81713   0.24343   1.000
    C111    C    0.75013   0.81713   0.24341   1.000
    C112    C    0.25011   0.67889   0.31600   1.000
    C113    C    0.75010   0.67889   0.31602   1.000
    C114    C    0.24874   0.84479   0.06399   1.000
    C115    C    0.74875   0.84478   0.06397   1.000
    C116    C    0.24990   0.28005   0.74951   1.000
    C117    C    0.74985   0.28004   0.74953   1.000
    C118    C    0.25027   0.33382   0.80499   1.000
    C119    C    0.75006   0.33382   0.80500   1.000
    C120    C    0.25053   0.29396   0.86489   1.000
    C121    C    0.75014   0.29398   0.86491   1.000
    C122    C    0.25041   0.19657   0.87083   1.000
    C123    C    0.75004   0.19660   0.87086   1.000
    C124    C    0.25014   0.14107   0.81618   1.000
    C125    C    0.74998   0.14108   0.81620   1.000
    C126    C    0.24986   0.18287   0.75657   1.000
    C127    C    0.74980   0.18287   0.75661   1.000
    C128    C    0.24988   0.32113   0.68398   1.000
    C129    C    0.74992   0.32111   0.68399   1.000
    C130    C    0.25044   0.15518   0.93601   1.000
    C131    C    0.74996   0.15523   0.93605   1.000
    C132    C    0.24988   0.21913   0.24930   1.000
    C133    C    0.74993   0.21912   0.24931   1.000
    C134    C    0.24974   0.16597   0.30512   1.000
    C135    C    0.74980   0.16596   0.30512   1.000
    C136    C    0.24985   0.20647   0.36478   1.000
    C137    C    0.74987   0.20646   0.36478   1.000
    C138    C    0.24983   0.30388   0.37009   1.000
    C139    C    0.74984   0.30388   0.37009   1.000
    C140    C    0.24978   0.35882   0.31510   1.000
    C141    C    0.74977   0.35881   0.31511   1.000
    C142    C    0.24992   0.31639   0.25578   1.000
    C143    C    0.74995   0.31638   0.25578   1.000
    C144    C    0.25003   0.17745   0.18400   1.000
    C145    C    0.75008   0.17742   0.18401   1.000
    C146    C    0.24991   0.34630   0.43492   1.000
    C147    C    0.74991   0.34630   0.43492   1.000
    C148    C    0.25015   0.78088   0.75070   1.000
    C149    C    0.75007   0.78090   0.75070   1.000
    C150    C    0.25027   0.83405   0.69400   1.000
    C151    C    0.75018   0.83405   0.69489   1.000
    C152    C    0.25016   0.79355   0.63520   1.000
    C153    C    0.75007   0.79355   0.63523   1.000
    C154    C    0.25018   0.69613   0.62992   1.000
    C155    C    0.75011   0.69613   0.62992   1.000
    C156    C    0.25025   0.64119   0.68490   1.000
    C157    C    0.75019   0.64120   0.68491   1.000
    C158    C    0.25011   0.68362   0.74423   1.000
    C159    C    0.75005   0.68364   0.74420   1.000
    C160    C    0.24996   0.82256   0.81601   1.000
    C161    C    0.74989   0.82260   0.81600   1.000
    C162    C    0.25008   0.65372   0.56509   1.000
    C163    C    0.75005   0.65371   0.56509   1.000
    N164    N    0.09122   0.59465   0.43681   1.000
    N165    N    0.59121   0.59465   0.43681   1.000
    N166    N    0.09208   0.40564   0.56350   1.000
    N167    N    0.59207   0.40562   0.56349   1.000
    N168    N    0.40830   0.09359   0.06390   1.000
    N169    N    0.90828   0.09373   0.06380   1.000
    N170    N    0.40795   0.90601   0.93646   1.000
    N171    N    0.90793   0.90603   0.93644   1.000
    N172    N    0.40876   0.40536   0.56319   1.000
    N173    N    0.90875   0.40538   0.56320   1.000
    N174    N    0.40790   0.59438   0.43650   1.000
    N175    N    0.90789   0.59438   0.43650   1.000
    N176    N    0.09127   0.90645   0.93609   1.000
    N177    N    0.59126   0.90648   0.93610   1.000
    N178    N    0.09163   0.09396   0.06357   1.000
    N179    N    0.59160   0.09382   0.06360   1.000
    N180    N    0.24980   0.56300   0.19687   1.000
    N181    N    0.74981   0.56300   0.19686   1.000
    N182    N    0.25011   0.43700   0.80315   1.000
    N183    N    0.75003   0.43700   0.80315   1.000
    N184    N    0.24963   0.06280   0.30402   1.000
    N185    N    0.74969   0.06279   0.30403   1.000
    N186    N    0.25038   0.93722   0.69599   1.000
    N187    N    0.75026   0.93722   0.69598   1.000
    O188    O    0.32282   0.52401   0.19710   1.000
    O189    O    0.82282   0.52401   0.19710   1.000
    O190    O    0.32294   0.47634   0.80564   1.000
    O191    O    0.82287   0.47631   0.80563   1.000
    O192    O    0.17666   0.02366   0.30550   1.000
    O193    O    0.67673   0.02364   0.30559   1.000
    O194    O    0.17746   0.97637   0.69459   1.000
    O195    O    0.67733   0.97636   0.69459   1.000
    O196    O    0.17712   0.47602   0.80290   1.000
    O197    O    0.67705   0.47606   0.80290   1.000
    O198    O    0.17699   0.52363   0.19438   1.000
    O199    O    0.67700   0.52363   0.19437   1.000
    O200    O    0.32335   0.97636   0.69443   1.000
    O201    O    0.82322   0.97638   0.69442   1.000
    O202    O    0.32255   0.02364   0.30540   1.000
    O203    O    0.75196   0.73388   0.36301   1.000
    O204    O    0.24859   0.93334   0.05621   1.000
    O205    O    0.74862   0.93334   0.05620   1.000
    O206    O    0.24852   0.78926   0.01689   1.000
    O207    O    0.74851   0.78925   0.01688   1.000
    O208    O    0.25195   0.40997   0.67800   1.000
    O209    O    0.75194   0.40995   0.67801   1.000
    O210    O    0.24804   0.26615   0.63699   1.000
    O211    O    0.74806   0.26612   0.63700   1.000
    O212    O    0.25163   0.06664   0.94380   1.000
    O213    O    0.75172   0.06670   0.94385   1.000
    O214    O    0.24928   0.21071   0.98309   1.000
    O215    O    0.74834   0.21076   0.98313   1.000
    O216    O    0.24838   0.08862   0.17834   1.000
    O217    O    0.74842   0.08858   0.17836   1.000
    O218    O    0.25173   0.23214   0.13677   1.000
    O219    O    0.75181   0.23210   0.13677   1.000
    O220    O    0.24819   0.43478   0.44172   1.000
    O221    O    0.74817   0.43478   0.44172   1.000
    O222    O    0.25157   0.29133   0.48246   1.000
    O223    O    0.75156   0.29133   0.48240   1.000
    O224    O    0.25151   0.91140   0.82166   1.000
    O225    O    0.75145   0.91144   0.82165   1.000
    O226    O    0.24827   0.76788   0.86324   1.000
    O227    O    0.74823   0.76792   0.86324   1.000
    O228    O    0.25180   0.56524   0.55829   1.000
    O229    O    0.75178   0.56523   0.55830   1.000
    O230    O    0.24841   0.70869   0.51756   1.000
    O231    O    0.74839   0.70868   0.51750   1.000
loop_
    _geom_bond_atom_site_label_1
    _geom_bond_atom_site_label_2
    _geom_bond_distance
    _geom_bond_site_symmetry_2
    _ccdc_geom_bond_type
    H38    C94       1.09120      .   S
    H39    C95       1.09118      .   S
    H18    C75       1.09173      .   S
    H17    C74       1.09118      .   S
    O207   C115      1.27447      .   S
    O207   Cd6       2.35011  1_554   S
    O206   C114      1.27466      .   S
    O206   Cd5       2.34964  1_554   S
    C94    C75       1.39359  1_455   S
    C94    N178      1.34432      .   S
    C95    C74       1.39306      .   S
    C95    N179      1.34368      .   S
    C75    N169      1.34438      .   S
    C74    N168      1.34435      .   S
    O205   C115      1.28130      .   S
    O205   Cd4       2.41811  1_565   S
    O204   C114      1.28132      .   S
    O204   Cd3       2.41830  1_565   S
    N178   Cd3       2.39973      .   S
    N178   C92       1.34372      .   S
    N179   Cd4       2.39923      .   S
    N179   C93       1.34439      .   S
    N169   Cd4       2.39943      .   S
    N169   C73       1.34390      .   S
    N168   Cd3       2.39864      .   S
    N168   C72       1.34381      .   S
    C115   C107      1.49815      .   S
    C114   C106      1.49796      .   S
    Cd3    O218      2.40256      .   S
    Cd3    O216      2.37959      .   S
    Cd3    O214      2.34974  1_554   S
    Cd4    O219      2.40217      .   S
    Cd4    O217      2.37980      .   S
    Cd4    O215      2.35006  1_554   S
    C92    C73       1.39366  1_455   S
    C92    H36       1.09017  1_545   S
    C93    C72       1.39316      .   S
    C93    H37       1.09042  1_545   S
    C73    H16       1.09025  1_545   S
    C72    H15       1.09025  1_545   S
    H41    C105      1.08860      .   S
    H40    C104      1.08844      .   S
    C107   C105      1.40315      .   S
    C107   C109      1.40225      .   S
    C106   C104      1.40317      .   S
    C106   C108      1.40241      .   S
    C105   C99       1.38717      .   S
    C104   C98       1.38737      .   S
    O219   C145      1.26854      .   S
    O218   C144      1.26848      .   S
    O216   C144      1.28092      .   S
    O217   C145      1.28090      .   S
    H43    C109      1.08918      .   S
    H42    C108      1.08904      .   S
    C109   C111      1.39330      .   S
    C108   C110      1.39332      .   S
    C144   C132      1.50289      .   S
    C145   C133      1.50297      .   S
    O199   N181      1.23915      .   S
    O198   N180      1.23913      .   S
    C99    N181      1.48123      .   S
    C99    C97       1.40146      .   S
    C98    N180      1.48123      .   S
    C98    C96       1.40286      .   S
    N181   O189      1.23910      .   S
    N180   O188      1.23911      .   S
    H57    C143      1.08762      .   S
    H56    C142      1.08748      .   S
    C111   C97       1.40231      .   S
    C111   H45       1.08773      .   S
    C110   C96       1.40249      .   S
    C110   H44       1.08686      .   S
    C132   C142      1.40267      .   S
    C132   C134      1.40311      .   S
    C133   C143      1.40267      .   S
    C133   C135      1.40287      .   S
    C97    C113      1.50475      .   S
    C96    C112      1.50242      .   S
    C142   C140      1.39271      .   S
    C143   C141      1.39295      .   S
    N184   C134      1.48088      .   S
    N184   O202      1.23925      .   S
    N184   O192      1.23896      .   S
    N185   C135      1.48088      .   S
    N185   O100      1.23925      .   S
    N185   O193      1.23897      .   S
    C134   C136      1.38732      .   S
    C135   C137      1.38735      .   S
    C140   H54       1.08921      .   S
    C140   C138      1.40257      .   S
    C141   H55       1.08919      .   S
    C141   C139      1.40233      .   S
    C112   O101      1.28156      .   S
    C112   O103      1.26871      .   S
    C113   O102      1.28147      .   S
    C113   O203      1.26827      .   S
    O102   Cd0       2.37150      .   S
    O101   Cd32      2.37149      .   S
    O203   Cd0       2.41045      .   S
    O103   Cd32      2.41041      .   S
    C136   C138      1.40272      .   S
    C136   H52       1.08850      .   S
    C137   C139      1.40274      .   S
    C137   H53       1.08707      .   S
    C139   C147      1.49807      .   S
    C138   C146      1.49805      .   S
    H27    C84       1.09041      .   S
    H28    C85       1.09037      .   S
    H7     C64       1.09110      .   S
    H8     C65       1.09037      .   S
    C85    C64       1.39371  1_655   S
    C85    N175      1.34379      .   S
    C84    C65       1.39324      .   S
    C84    N174      1.34368      .   S
    C64    N164      1.34381      .   S
    C65    N165      1.34375      .   S
    Cd0    N175      2.39936      .   S
    Cd0    N165      2.40002      .   S
    Cd0    O221      2.40950      .   S
    Cd0    O231      2.33217      .   S
    Cd32   N174      2.39944      .   S
    Cd32   N164      2.40000      .   S
    Cd32   O220      2.40947      .   S
    Cd32   O230      2.33314      .   S
    C147   O221      1.27841      .   S
    C147   O223      1.27513      .   S
    C146   O220      1.27843      .   S
    C146   O222      1.27612      .   S
    N175   C87       1.34433      .   S
    N174   C86       1.34446      .   S
    N165   C67       1.34437      .   S
    N164   C66       1.34376      .   S
    C87    C66       1.39348  1_655   S
    C87    H30       1.09106      .   S
    C86    C67       1.39303      .   S
    C86    H29       1.09107      .   S
    C66    H9        1.09168      .   S
    C67    H10       1.09108      .   S
    O223   Cd2       2.33389      .   S
    O222   Cd1       2.33297      .   S
    H25    C82       1.09110      .   S
    H26    C83       1.09103      .   S
    H14    C71       1.09103      .   S
    H13    C70       1.09103      .   S
    O231   C163      1.27693      .   S
    O230   C162      1.27599      .   S
    C82    C71       1.39303      .   S
    C82    N172      1.34435      .   S
    C83    C70       1.39348  1_655   S
    C83    N173      1.34431      .   S
    C71    N167      1.34434      .   S
    C70    N166      1.34422      .   S
    O228   C162      1.27842      .   S
    O228   Cd1       2.40944      .   S
    O229   C163      1.27840      .   S
    O229   Cd2       2.40957      .   S
    N172   Cd1       2.40006      .   S
    N172   C80       1.34383      .   S
    N173   Cd2       2.39999      .   S
    N173   C81       1.34384      .   S
    N167   Cd2       2.39944      .   S
    N167   C69       1.34386      .   S
    N166   Cd1       2.39937      .   S
    N166   C68       1.34396      .   S
    C163   C155      1.49808      .   S
    C162   C154      1.49802      .   S
    Cd1    O210      2.41046      .   S
    Cd1    O208      2.37149      .   S
    Cd2    O211      2.41049      .   S
    Cd2    O209      2.37149      .   S
    C80    C69       1.39324      .   S
    C80    H23       1.09035      .   S
    C81    C68       1.39371  1_655   S
    C81    H24       1.09032      .   S
    C69    H12       1.09034      .   S
    C68    H11       1.09035      .   S
    H58    C152      1.08797      .   S
    H59    C153      1.08847      .   S
    C154   C152      1.40267      .   S
    C154   C156      1.40239      .   S
    C155   C153      1.40274      .   S
    C155   C157      1.40250      .   S
    C152   C150      1.37086      .   S
    C153   C151      1.38736      .   S
    O210   C128      1.26821      .   S
    O211   C129      1.26824      .   S
    O208   C128      1.28148      .   S
    O209   C129      1.28148      .   S
    H60    C156      1.08921      .   S
    H61    C157      1.08921      .   S
    C128   C116      1.50306      .   S
    C129   C117      1.50318      .   S
    C156   C158      1.39291      .   S
    C157   C159      1.39220      .   S
    C150   N186      1.48133      .   S
    C150   C148      1.41873      .   S
    O201   N187      1.23900      .   S
    O200   N186      1.23900      .   S
    O195   N187      1.23923      .   S
    O194   N186      1.23925      .   S
    C151   N187      1.48088      .   S
    C151   C149      1.40286      .   S
    H50    C126      1.08762      .   S
    H51    C127      1.08778      .   S
    C159   C149      1.40273      .   S
    C159   H63       1.08816      .   S
    C158   C148      1.40265      .   S
    C158   H62       1.08765      .   S
    C116   C126      1.40250      .   S
    C116   C118      1.40296      .   S
    C117   C127      1.40251      .   S
    C117   C119      1.40287      .   S
    C149   C161      1.50300      .   S
    C148   C160      1.50309      .   S
    C126   C124      1.39338      .   S
    C127   C125      1.39289      .   S
    O196   N182      1.23909      .   S
    O197   N183      1.23909      .   S
    N182   C118      1.48125      .   S
    N182   O190      1.23916      .   S
    N183   C119      1.48126      .   S
    N183   O191      1.23915      .   S
    C118   C120      1.38725      .   S
    C119   C121      1.38732      .   S
    C161   O225      1.28092      .   S
    C161   O227      1.26849      .   S
    C160   O224      1.28090      .   S
    C160   O226      1.26844      .   S
    C124   H48       1.08906      .   S
    C124   C122      1.40231      .   S
    C125   H49       1.08903      .   S
    C125   C123      1.40259      .   S
    O225   Cd6       2.37985      .   S
    O224   Cd5       2.37987      .   S
    O227   Cd6       2.40219      .   S
    O226   Cd5       2.40233      .   S
    C120   C122      1.40316      .   S
    C120   H46       1.08849      .   S
    C121   C123      1.40315      .   S
    C121   H47       1.08847      .   S
    C122   C130      1.49801      .   S
    C123   C131      1.49806      .   S
    H33    C89       1.09037  1_545   S
    H31    C88       1.09027  1_545   S
    H19    C76       1.09027  1_545   S
    H20    C77       1.09034  1_545   S
    C88    C77       1.39365  1_455   S
    C88    N176      1.34381      .   S
    C89    C76       1.39317      .   S
    C89    N177      1.34377      .   S
    C77    N171      1.34387      .   S
    C76    N170      1.34389      .   S
    Cd6    N177      2.39888      .   S
    Cd6    N171      2.39959      .   S
    Cd6    O213      2.41841  1_565   S
    Cd5    N176      2.39886      .   S
    Cd5    N170      2.39972      .   S
    Cd5    O212      2.41810  1_565   S
    C130   O212      1.28130      .   S
    C130   O214      1.27442      .   S
    C131   O213      1.28138      .   S
    C131   O215      1.27454      .   S
    N176   C90       1.34437      .   S
    N177   C91       1.34440      .   S
    N171   C79       1.33745      .   S
    N170   C78       1.34430      .   S
    C79    C90       1.39360  1_655   S
    C79    H22       1.09819      .   S
    C90    H34       1.09120      .   S
    C91    C78       1.39309      .   S
    C91    H35       1.09115      .   S
    C78    H21       1.09109      .   S
