# CIF file generated by openbabel 2.4.90, see http://openbabel.sf.net
data_I
_chemical_name_common ''
_cell_length_a 15.135
_cell_length_b 14.352
_cell_length_c 21.106
_cell_angle_alpha 89.952
_cell_angle_beta 90.003
_cell_angle_gamma 90.053
_space_group_name_H-M_alt 'P 1'
_space_group_name_Hall 'P 1'
loop_
    _symmetry_equiv_pos_as_xyz
    x,y,z
loop_
    _atom_site_label
    _atom_site_type_symbol
    _atom_site_fract_x
    _atom_site_fract_y
    _atom_site_fract_z
    _atom_site_occupancy
    Cd0     Cd   0.74958   0.60229   0.43404   1.000
    Cd1     Cd   0.25039   0.39773   0.56596   1.000
    Cd2     Cd   0.75039   0.39771   0.56597   1.000
    Cd3     Cd   0.25001   0.10121   0.06592   1.000
    Cd4     Cd   0.74994   0.10120   0.06593   1.000
    Cd5     Cd   0.24957   0.89879   0.93409   1.000
    Cd6     Cd   0.74956   0.89884   0.93408   1.000
    Cd7     Cd   0.24959   0.60229   0.43405   1.000
