# CIF file generated by openbabel 2.4.90, see http://openbabel.sf.net
data_I
_chemical_name_common ''
_cell_length_a 15.135
_cell_length_b 14.352
_cell_length_c 21.106
_cell_angle_alpha 89.952
_cell_angle_beta 90.003
_cell_angle_gamma 90.053
_space_group_name_H-M_alt 'P 1'
_space_group_name_Hall 'P 1'
loop_
    _symmetry_equiv_pos_as_xyz
    x,y,z
loop_
    _atom_site_label
    _atom_site_type_symbol
    _atom_site_fract_x
    _atom_site_fract_y
    _atom_site_fract_z
    _atom_site_occupancy
    Zr0     Zr   0.24959   0.60229   0.43405   1.000
    Zr1     Zr   0.74958   0.60229   0.43404   1.000
    Zr2     Zr   0.25039   0.39773   0.56596   1.000
    Zr3     Zr   0.75039   0.39771   0.56597   1.000
    Zr4     Zr   0.25001   0.10121   0.06592   1.000
    Zr5     Zr   0.74994   0.10120   0.06593   1.000
    Zr6     Zr   0.24957   0.89879   0.93409   1.000
    Zr7     Zr   0.74956   0.89884   0.93408   1.000
    N8      N    0.99998   0.09441   0.06435   1.000
    O9      O    0.08540   0.09600   0.06455   1.000
    O10     O    0.91455   0.09593   0.06461   1.000
    N11     N    0.49958   0.59508   0.43600   1.000
    O12     O    0.58498   0.59678   0.43571   1.000
    O13     O    0.41416   0.59671   0.43564   1.000
    N14     N    0.25017   0.26612   0.80987   1.000
    O15     O    0.24991   0.21104   0.91719   1.000
    O16     O    0.25038   0.12442   0.87441   1.000
    N17     N    0.24958   0.73387   0.19013   1.000
    O18     O    0.24931   0.78895   0.08281   1.000
    O19     O    0.24944   0.87558   0.12560   1.000
    N20     N    0.00040   0.40494   0.56402   1.000
    O21     O    0.08582   0.40331   0.56438   1.000
    O22     O    0.91498   0.40324   0.56430   1.000
    N23     N    0.49997   0.09426   0.06446   1.000
    O24     O    0.41456   0.09583   0.06468   1.000
    O25     O    0.58537   0.09589   0.06461   1.000
    N26     N    0.74958   0.73387   0.19011   1.000
    O27     O    0.74943   0.87557   0.12559   1.000
    O28     O    0.74930   0.78896   0.08280   1.000
    N29     N    0.75008   0.76623   0.69043   1.000
    O30     O    0.74953   0.71086   0.58310   1.000
    O31     O    0.75058   0.62385   0.62628   1.000
    N32     N    0.24985   0.23379   0.30956   1.000
    O33     O    0.24937   0.37616   0.37372   1.000
    O34     O    0.25042   0.28916   0.41689   1.000
    N35     N    0.74998   0.26613   0.80989   1.000
    O36     O    0.74956   0.21106   0.91721   1.000
    O37     O    0.75031   0.12445   0.87443   1.000
    N38     N    0.25015   0.76622   0.69039   1.000
    O39     O    0.25062   0.62385   0.62626   1.000
    O40     O    0.24957   0.71086   0.58310   1.000
    N41     N    0.49960   0.90568   0.93560   1.000
    O42     O    0.58500   0.90417   0.93534   1.000
    O43     O    0.41418   0.90404   0.93544   1.000
    N44     N    0.99959   0.90568   0.93551   1.000
    O45     O    0.08501   0.90415   0.93530   1.000
    O46     O    0.91417   0.90405   0.93538   1.000
    N47     N    0.74988   0.23378   0.30956   1.000
    O48     O    0.74938   0.37616   0.37372   1.000
    O49     O    0.75043   0.28915   0.41687   1.000
    N50     N    0.99957   0.59508   0.43598   1.000
    O51     O    0.08499   0.59677   0.43570   1.000
    O52     O    0.91415   0.59671   0.43562   1.000
    N53     N    0.50040   0.40493   0.56400   1.000
    O54     O    0.41499   0.40324   0.56429   1.000
    O55     O    0.58581   0.40330   0.56437   1.000
    O56     O    0.24994   0.18229   0.21065   1.000
    O57     O    0.24994   0.81772   0.78933   1.000
    O58     O    0.74989   0.81774   0.78935   1.000
    O59     O    0.75009   0.31700   0.71081   1.000
    O60     O    0.24969   0.68300   0.28921   1.000
    O61     O    0.74995   0.18228   0.21066   1.000
    O62     O    0.25018   0.31701   0.71080   1.000
    O63     O    0.74968   0.68300   0.28919   1.000
loop_
    _geom_bond_atom_site_label_1
    _geom_bond_atom_site_label_2
    _geom_bond_distance
    _geom_bond_site_symmetry_2
    _ccdc_geom_bond_type
    N8     O9        1.29306  1_655   S
    Zr4    O9        2.49262      .   S
    N8     O10       1.29325      .   S
    Zr5    O10       2.49266      .   S
    N11    O12       1.29288      .   S
    Zr1    O12       2.49254      .   S
    N11    O13       1.29301      .   S
    Zr0    O13       2.49239      .   S
    N14    O15       2.39838      .   S
    Zr4    O15       3.51145  1_554   S
    N14    O16       2.44677      .   S
    Zr6    O16       3.47363  1_565   S
    N17    O18       2.39842      .   S
    Zr6    O18       3.51132  1_556   S
    N17    O19       2.44671      .   S
    Zr4    O19       3.47372  1_545   S
    N20    O21       1.29310      .   S
    Zr2    O21       2.49244      .   S
    N20    O22       1.29297  1_455   S
    Zr3    O22       2.49262      .   S
    N23    O24       1.29285      .   S
    Zr4    O24       2.49186      .   S
    N23    O25       1.29274      .   S
    Zr5    O25       2.49204      .   S
    N26    O27       2.44654      .   S
    Zr5    O27       3.47341  1_545   S
    N26    O28       2.39839      .   S
    Zr7    O28       3.51148  1_556   S
    N29    O30       2.40135      .   S
    Zr1    O30       3.51198      .   S
    N29    O31       2.45226      .   S
    Zr3    O31       3.48727      .   S
    N32    O33       2.45227      .   S
    Zr0    O33       3.48717      .   S
    N32    O34       2.40115      .   S
    Zr2    O34       3.51221      .   S
    N35    O36       2.39842      .   S
    Zr5    O36       3.51144  1_554   S
    N35    O37       2.44653      .   S
    Zr7    O37       3.47321  1_565   S
    N38    O39       2.45190      .   S
    Zr2    O39       3.48690      .   S
    N38    O40       2.40051      .   S
    Zr0    O40       3.51169      .   S
    N41    O42       1.29282      .   S
    Zr7    O42       2.49194      .   S
    N41    O43       1.29302      .   S
    Zr6    O43       2.49258      .   S
    N44    O45       1.29293  1_655   S
    Zr6    O45       2.49204      .   S
    N44    O46       1.29311      .   S
    Zr7    O46       2.49260      .   S
    N47    O48       2.45232      .   S
    Zr1    O48       3.48721      .   S
    N47    O49       2.40090      .   S
    Zr3    O49       3.51258      .   S
    N50    O51       1.29299  1_655   S
    Zr0    O51       2.49264      .   S
    N50    O52       1.29310      .   S
    Zr1    O52       2.49243      .   S
    N53    O54       1.29289      .   S
    Zr2    O54       2.49257      .   S
    N53    O55       1.29301      .   S
    Zr3    O55       2.49239      .   S
    Zr4    O56       3.26973      .   S
    N32    O56       2.21521      .   S
    Zr6    O57       3.27028      .   S
    N38    O57       2.21575      .   S
    Zr7    O58       3.26981      .   S
    N29    O58       2.21531      .   S
    Zr3    O59       3.26827      .   S
    N35    O59       2.21433      .   S
    Zr0    O60       3.26826      .   S
    N17    O60       2.21434      .   S
    Zr5    O61       3.26963      .   S
    N47    O61       2.21515      .   S
    Zr2    O62       3.26825      .   S
    N14    O62       2.21431      .   S
    Zr1    O63       3.26834      .   S
    N26    O63       2.21442      .   S
