# CIF file generated by openbabel 2.4.90, see http://openbabel.sf.net
data_I
_chemical_name_common ''
_cell_length_a 15.135
_cell_length_b 14.352
_cell_length_c 21.106
_cell_angle_alpha 89.952
_cell_angle_beta 90.003
_cell_angle_gamma 90.053
_space_group_name_H-M_alt 'P 1'
_space_group_name_Hall 'P 1'
loop_
    _symmetry_equiv_pos_as_xyz
    x,y,z
loop_
    _atom_site_label
    _atom_site_type_symbol
    _atom_site_fract_x
    _atom_site_fract_y
    _atom_site_fract_z
    _atom_site_occupancy
    C0      C    0.24959   0.60229   0.43405   1.000
    C1      C    0.74958   0.60229   0.43404   1.000
    C2      C    0.25039   0.39773   0.56596   1.000
    C3      C    0.75039   0.39771   0.56597   1.000
    C4      C    0.25001   0.10121   0.06592   1.000
    C5      C    0.74994   0.10120   0.06593   1.000
    C6      C    0.24957   0.89879   0.93409   1.000
    C7      C    0.74956   0.89884   0.93408   1.000
    C8      C    0.08408   0.47070   0.38600   1.000
    C9      C    0.58406   0.47072   0.38607   1.000
    C10     C    0.08387   0.72028   0.48547   1.000
    C11     C    0.58386   0.72027   0.48549   1.000
    C12     C    0.08442   0.52965   0.61418   1.000
    C13     C    0.58441   0.52961   0.61418   1.000
    C14     C    0.08509   0.27986   0.51496   1.000
    C15     C    0.58507   0.27986   0.51491   1.000
    C16     C    0.41592   0.96870   0.11372   1.000
    C17     C    0.91592   0.96889   0.11367   1.000
    C18     C    0.41533   0.22018   0.01619   1.000
    C19     C    0.91534   0.22031   0.01600   1.000
    C20     C    0.41497   0.03081   0.88653   1.000
    C21     C    0.91498   0.03084   0.88654   1.000
    C22     C    0.41550   0.77952   0.98423   1.000
    C23     C    0.91545   0.77951   0.98419   1.000
    C24     C    0.41592   0.52929   0.61394   1.000
    C25     C    0.91589   0.52932   0.61393   1.000
    C26     C    0.41611   0.27975   0.51451   1.000
    C27     C    0.91610   0.27974   0.51456   1.000
    C28     C    0.41556   0.47039   0.38582   1.000
    C29     C    0.91555   0.47038   0.38583   1.000
    C30     C    0.41490   0.72015   0.48509   1.000
    C31     C    0.91488   0.72016   0.48506   1.000
    C32     C    0.08346   0.03129   0.88624   1.000
    C33     C    0.58342   0.03129   0.88621   1.000
    C34     C    0.08446   0.77990   0.98384   1.000
    C35     C    0.58448   0.77994   0.98387   1.000
    C36     C    0.08440   0.96921   0.11350   1.000
    C37     C    0.58437   0.96904   0.11360   1.000
    C38     C    0.08433   0.22041   0.01574   1.000
    C39     C    0.58433   0.22029   0.01588   1.000
    C40     C    0.24872   0.66297   0.09269   1.000
    C41     C    0.74874   0.66297   0.09267   1.000
    C42     C    0.24971   0.93461   0.18010   1.000
    C43     C    0.74970   0.93461   0.18000   1.000
    C44     C    0.25047   0.85969   0.28600   1.000
    C45     C    0.75045   0.85969   0.28603   1.000
    C46     C    0.25080   0.33699   0.90733   1.000
    C47     C    0.75024   0.33704   0.90734   1.000
    C48     C    0.25015   0.06538   0.81989   1.000
    C49     C    0.75002   0.06539   0.81990   1.000
    C50     C    0.24960   0.14033   0.71395   1.000
    C51     C    0.74968   0.14030   0.71399   1.000
    C52     C    0.24993   0.16388   0.40748   1.000
    C53     C    0.74996   0.16388   0.40740   1.000
    C54     C    0.24971   0.43455   0.31845   1.000
    C55     C    0.74968   0.43454   0.31844   1.000
    C56     C    0.25006   0.35848   0.21291   1.000
    C57     C    0.75007   0.35846   0.21290   1.000
    C58     C    0.25006   0.83613   0.59253   1.000
    C59     C    0.74996   0.83613   0.59253   1.000
    C60     C    0.25032   0.56546   0.68156   1.000
    C61     C    0.75028   0.56547   0.68157   1.000
    C62     C    0.24998   0.64154   0.78711   1.000
    C63     C    0.74992   0.64155   0.78711   1.000
    C64     C    0.04572   0.52579   0.40857   1.000
    C65     C    0.54570   0.52580   0.40857   1.000
    C66     C    0.04548   0.66448   0.46360   1.000
    C67     C    0.54547   0.66447   0.46368   1.000
    C68     C    0.04633   0.47439   0.59157   1.000
    C69     C    0.54632   0.47436   0.59156   1.000
    C70     C    0.04656   0.33566   0.53654   1.000
    C71     C    0.54654   0.33565   0.53650   1.000
    C72     C    0.45402   0.02436   0.09152   1.000
    C73     C    0.95401   0.02452   0.09144   1.000
    C74     C    0.45385   0.16402   0.03743   1.000
    C75     C    0.95384   0.16414   0.03730   1.000
    C76     C    0.45337   0.97538   0.90865   1.000
    C77     C    0.95337   0.97540   0.90865   1.000
    C78     C    0.45378   0.83579   0.96283   1.000
    C79     C    0.95375   0.83578   0.96200   1.000
    C80     C    0.45427   0.47421   0.59144   1.000
    C81     C    0.95425   0.47424   0.59144   1.000
    C82     C    0.45450   0.33554   0.53632   1.000
    C83     C    0.95449   0.33554   0.53635   1.000
    C84     C    0.45365   0.52564   0.40845   1.000
    C85     C    0.95364   0.52563   0.40845   1.000
    C86     C    0.45343   0.66435   0.46350   1.000
    C87     C    0.95341   0.66436   0.46348   1.000
    C88     C    0.04545   0.97561   0.90849   1.000
    C89     C    0.54542   0.97562   0.90849   1.000
    C90     C    0.04582   0.83597   0.96260   1.000
    C91     C    0.54582   0.83599   0.96263   1.000
    C92     C    0.04609   0.02467   0.09135   1.000
    C93     C    0.54607   0.02450   0.09143   1.000
    C94     C    0.04592   0.16424   0.03716   1.000
    C95     C    0.54590   0.16412   0.03728   1.000
    C96     C    0.25010   0.71996   0.25050   1.000
    C97     C    0.75009   0.71996   0.25040   1.000
    C98     C    0.24964   0.66618   0.19503   1.000
    C99     C    0.74963   0.66617   0.19501   1.000
    C100    C    0.24913   0.70603   0.13512   1.000
    C101    C    0.74914   0.70602   0.13511   1.000
    C102    C    0.24919   0.80341   0.12917   1.000
    C103    C    0.74920   0.80340   0.12916   1.000
    C104    C    0.24970   0.85892   0.18382   1.000
    C105    C    0.74970   0.85892   0.18380   1.000
    C106    C    0.25014   0.81713   0.24343   1.000
    C107    C    0.75013   0.81713   0.24341   1.000
    C108    C    0.25011   0.67889   0.31600   1.000
    C109    C    0.75010   0.67889   0.31602   1.000
    C110    C    0.24874   0.84479   0.06399   1.000
    C111    C    0.74875   0.84478   0.06397   1.000
    C112    C    0.24990   0.28005   0.74951   1.000
    C113    C    0.74985   0.28004   0.74953   1.000
    C114    C    0.25027   0.33382   0.80499   1.000
    C115    C    0.75006   0.33382   0.80500   1.000
    C116    C    0.25053   0.29396   0.86489   1.000
    C117    C    0.75014   0.29398   0.86491   1.000
    C118    C    0.25041   0.19657   0.87083   1.000
    C119    C    0.75004   0.19660   0.87086   1.000
    C120    C    0.25014   0.14107   0.81618   1.000
    C121    C    0.74998   0.14108   0.81620   1.000
    C122    C    0.24986   0.18287   0.75657   1.000
    C123    C    0.74980   0.18287   0.75661   1.000
    C124    C    0.24988   0.32113   0.68398   1.000
    C125    C    0.74992   0.32111   0.68399   1.000
    C126    C    0.25044   0.15518   0.93601   1.000
    C127    C    0.74996   0.15523   0.93605   1.000
    C128    C    0.24988   0.21913   0.24930   1.000
    C129    C    0.74993   0.21912   0.24931   1.000
    C130    C    0.24974   0.16597   0.30512   1.000
    C131    C    0.74980   0.16596   0.30512   1.000
    C132    C    0.24985   0.20647   0.36478   1.000
    C133    C    0.74987   0.20646   0.36478   1.000
    C134    C    0.24983   0.30388   0.37009   1.000
    C135    C    0.74984   0.30388   0.37009   1.000
    C136    C    0.24978   0.35882   0.31510   1.000
    C137    C    0.74977   0.35881   0.31511   1.000
    C138    C    0.24992   0.31639   0.25578   1.000
    C139    C    0.74995   0.31638   0.25578   1.000
    C140    C    0.25003   0.17745   0.18400   1.000
    C141    C    0.75008   0.17742   0.18401   1.000
    C142    C    0.24991   0.34630   0.43492   1.000
    C143    C    0.74991   0.34630   0.43492   1.000
    C144    C    0.25015   0.78088   0.75070   1.000
    C145    C    0.75007   0.78090   0.75070   1.000
    C146    C    0.25027   0.83405   0.69400   1.000
    C147    C    0.75018   0.83405   0.69489   1.000
    C148    C    0.25016   0.79355   0.63520   1.000
    C149    C    0.75007   0.79355   0.63523   1.000
    C150    C    0.25018   0.69613   0.62992   1.000
    C151    C    0.75011   0.69613   0.62992   1.000
    C152    C    0.25025   0.64119   0.68490   1.000
    C153    C    0.75019   0.64120   0.68491   1.000
    C154    C    0.25011   0.68362   0.74423   1.000
    C155    C    0.75005   0.68364   0.74420   1.000
    C156    C    0.24996   0.82256   0.81601   1.000
    C157    C    0.74989   0.82260   0.81600   1.000
    C158    C    0.25008   0.65372   0.56509   1.000
    C159    C    0.75005   0.65371   0.56509   1.000
    C160    C    0.09122   0.59465   0.43681   1.000
    C161    C    0.59121   0.59465   0.43681   1.000
    C162    C    0.09208   0.40564   0.56350   1.000
    C163    C    0.59207   0.40562   0.56349   1.000
    C164    C    0.40830   0.09359   0.06390   1.000
    C165    C    0.90828   0.09373   0.06380   1.000
    C166    C    0.40795   0.90601   0.93646   1.000
    C167    C    0.90793   0.90603   0.93644   1.000
    C168    C    0.40876   0.40536   0.56319   1.000
    C169    C    0.90875   0.40538   0.56320   1.000
    C170    C    0.40790   0.59438   0.43650   1.000
    C171    C    0.90789   0.59438   0.43650   1.000
    C172    C    0.09127   0.90645   0.93609   1.000
    C173    C    0.59126   0.90648   0.93610   1.000
    C174    C    0.09163   0.09396   0.06357   1.000
    C175    C    0.59160   0.09382   0.06360   1.000
    C176    C    0.24980   0.56300   0.19687   1.000
    C177    C    0.74981   0.56300   0.19686   1.000
    C178    C    0.25011   0.43700   0.80315   1.000
    C179    C    0.75003   0.43700   0.80315   1.000
    C180    C    0.24963   0.06280   0.30402   1.000
    C181    C    0.74969   0.06279   0.30403   1.000
    C182    C    0.25038   0.93722   0.69599   1.000
    C183    C    0.75026   0.93722   0.69598   1.000
    C184    C    0.32282   0.52401   0.19710   1.000
    C185    C    0.82282   0.52401   0.19710   1.000
    C186    C    0.32294   0.47634   0.80564   1.000
    C187    C    0.82287   0.47631   0.80563   1.000
    C188    C    0.17666   0.02366   0.30550   1.000
    C189    C    0.67673   0.02364   0.30559   1.000
    C190    C    0.17746   0.97637   0.69459   1.000
    C191    C    0.67733   0.97636   0.69459   1.000
    C192    C    0.17712   0.47602   0.80290   1.000
    C193    C    0.67705   0.47606   0.80290   1.000
    C194    C    0.17699   0.52363   0.19438   1.000
    C195    C    0.67700   0.52363   0.19437   1.000
    C196    C    0.32335   0.97636   0.69443   1.000
    C197    C    0.82322   0.97638   0.69442   1.000
    C198    C    0.32255   0.02364   0.30540   1.000
    C199    C    0.82261   0.02365   0.30541   1.000
    C200    C    0.24804   0.59005   0.32201   1.000
    C201    C    0.74802   0.59005   0.32200   1.000
    C202    C    0.25198   0.73387   0.36302   1.000
    C203    C    0.75196   0.73388   0.36301   1.000
    C204    C    0.24859   0.93334   0.05621   1.000
    C205    C    0.74862   0.93334   0.05620   1.000
    C206    C    0.24852   0.78926   0.01689   1.000
    C207    C    0.74851   0.78925   0.01688   1.000
    C208    C    0.25195   0.40997   0.67800   1.000
    C209    C    0.75194   0.40995   0.67801   1.000
    C210    C    0.24804   0.26615   0.63699   1.000
    C211    C    0.74806   0.26612   0.63700   1.000
    C212    C    0.25163   0.06664   0.94380   1.000
    C213    C    0.75172   0.06670   0.94385   1.000
    C214    C    0.24928   0.21071   0.98309   1.000
    C215    C    0.74834   0.21076   0.98313   1.000
    C216    C    0.24838   0.08862   0.17834   1.000
    C217    C    0.74842   0.08858   0.17836   1.000
    C218    C    0.25173   0.23214   0.13677   1.000
    C219    C    0.75181   0.23210   0.13677   1.000
    C220    C    0.24819   0.43478   0.44172   1.000
    C221    C    0.74817   0.43478   0.44172   1.000
    C222    C    0.25157   0.29133   0.48246   1.000
    C223    C    0.75156   0.29133   0.48240   1.000
    C224    C    0.25151   0.91140   0.82166   1.000
    C225    C    0.75145   0.91144   0.82165   1.000
    C226    C    0.24827   0.76788   0.86324   1.000
    C227    C    0.74823   0.76792   0.86324   1.000
    C228    C    0.25180   0.56524   0.55829   1.000
    C229    C    0.75178   0.56523   0.55830   1.000
    C230    C    0.24841   0.70869   0.51756   1.000
    C231    C    0.74839   0.70868   0.51750   1.000
    O232    O    0.06513   0.19232   0.02645   1.000
    O233    O    0.56511   0.19221   0.02658   1.000
    O234    O    0.93459   0.19223   0.02665   1.000
    O235    O    0.43459   0.19210   0.02681   1.000
    O236    O    0.74863   0.81702   0.04042   1.000
    O237    O    0.74903   0.84404   0.97548   1.000
    O238    O    0.24863   0.81702   0.04044   1.000
    O239    O    0.24904   0.84402   0.97549   1.000
    O240    O    0.99988   0.16419   0.03723   1.000
    O241    O    0.06878   0.12910   0.05037   1.000
    O242    O    0.49987   0.16407   0.03735   1.000
    O243    O    0.56875   0.12897   0.05044   1.000
    O244    O    0.93106   0.12894   0.05055   1.000
    O245    O    0.43108   0.12880   0.05066   1.000
    O246    O    0.74868   0.88906   0.06008   1.000
    O247    O    0.74928   0.01727   0.06106   1.000
    O248    O    0.24867   0.88906   0.06010   1.000
    O249    O    0.24930   0.01728   0.06107   1.000
    O250    O    0.17082   0.09759   0.06475   1.000
    O251    O    0.06886   0.05931   0.07746   1.000
    O252    O    0.67077   0.09751   0.06477   1.000
    O253    O    0.56883   0.05916   0.07751   1.000
    O254    O    0.82911   0.09746   0.06486   1.000
    O255    O    0.93115   0.05913   0.07762   1.000
    O256    O    0.32916   0.09740   0.06491   1.000
    O257    O    0.43116   0.05897   0.07771   1.000
    O258    O    0.74897   0.82409   0.09656   1.000
    O259    O    0.24897   0.82410   0.09658   1.000
    O260    O    0.25087   0.16668   0.10135   1.000
    O261    O    0.24920   0.09492   0.12213   1.000
    O262    O    0.24965   0.15596   0.02450   1.000
    O263    O    0.75087   0.16665   0.10135   1.000
    O264    O    0.74918   0.09489   0.12214   1.000
    O265    O    0.74914   0.15598   0.02453   1.000
    O266    O    0.00005   0.02460   0.09140   1.000
    O267    O    0.06525   0.99694   0.10243   1.000
    O268    O    0.50004   0.02443   0.09148   1.000
    O269    O    0.56522   0.99677   0.10251   1.000
    O270    O    0.93497   0.99671   0.10255   1.000
    O271    O    0.43497   0.99653   0.10262   1.000
    O272    O    0.74894   0.68450   0.11389   1.000
    O273    O    0.24893   0.68450   0.11390   1.000
    O274    O    0.74917   0.75471   0.13214   1.000
    O275    O    0.74945   0.83116   0.15648   1.000
    O276    O    0.24916   0.75472   0.13215   1.000
    O277    O    0.24945   0.83117   0.15649   1.000
    O278    O    0.74939   0.68610   0.16506   1.000
    O279    O    0.24938   0.68610   0.16507   1.000
    O280    O    0.75095   0.20476   0.16039   1.000
    O281    O    0.25088   0.20480   0.16038   1.000
    O282    O    0.24921   0.13303   0.18117   1.000
    O283    O    0.74925   0.13300   0.18118   1.000
    O284    O    0.74970   0.89676   0.18190   1.000
    O285    O    0.24970   0.89676   0.18196   1.000
    O286    O    0.74992   0.83803   0.21361   1.000
    O287    O    0.24992   0.83803   0.21362   1.000
    O288    O    0.24996   0.19829   0.21665   1.000
    O289    O    0.75001   0.19827   0.21666   1.000
    O290    O    0.71340   0.54332   0.19562   1.000
    O291    O    0.21340   0.54332   0.19562   1.000
    O292    O    0.74972   0.61459   0.19593   1.000
    O293    O    0.74986   0.69307   0.22270   1.000
    O294    O    0.24972   0.61459   0.19595   1.000
    O295    O    0.24987   0.69307   0.22276   1.000
    O296    O    0.78632   0.54351   0.19698   1.000
    O297    O    0.28631   0.54351   0.19698   1.000
    O298    O    0.75001   0.33742   0.23434   1.000
    O299    O    0.24999   0.33743   0.23434   1.000
    O300    O    0.75011   0.76855   0.24691   1.000
    O301    O    0.75029   0.83841   0.26472   1.000
    O302    O    0.25012   0.76855   0.24697   1.000
    O303    O    0.25030   0.83841   0.26471   1.000
    O304    O    0.24990   0.26776   0.25254   1.000
    O305    O    0.24981   0.19255   0.27721   1.000
    O306    O    0.74994   0.26775   0.25255   1.000
    O307    O    0.74986   0.19254   0.27721   1.000
    O308    O    0.75009   0.69942   0.28321   1.000
    O309    O    0.25011   0.69942   0.28325   1.000
    O310    O    0.24985   0.33761   0.28544   1.000
    O311    O    0.74986   0.33759   0.28545   1.000
    O312    O    0.24968   0.11438   0.30457   1.000
    O313    O    0.28609   0.04322   0.30471   1.000
    O314    O    0.21314   0.04323   0.30476   1.000
    O315    O    0.74974   0.11437   0.30457   1.000
    O316    O    0.78615   0.04322   0.30472   1.000
    O317    O    0.71321   0.04321   0.30481   1.000
    O318    O    0.24979   0.18622   0.33495   1.000
    O319    O    0.74983   0.18621   0.33495   1.000
    O320    O    0.24974   0.39669   0.31678   1.000
    O321    O    0.24981   0.33135   0.34259   1.000
    O322    O    0.74973   0.39668   0.31677   1.000
    O323    O    0.74981   0.33135   0.34260   1.000
    O324    O    0.24908   0.63447   0.31900   1.000
    O325    O    0.25105   0.70638   0.33951   1.000
    O326    O    0.74906   0.63447   0.31901   1.000
    O327    O    0.75103   0.70638   0.33952   1.000
    O328    O    0.74880   0.59617   0.37802   1.000
    O329    O    0.24882   0.59617   0.37803   1.000
    O330    O    0.75077   0.66808   0.39853   1.000
    O331    O    0.25078   0.66808   0.39854   1.000
    O332    O    0.24984   0.25518   0.36743   1.000
    O333    O    0.24989   0.18517   0.38613   1.000
    O334    O    0.74986   0.25517   0.36743   1.000
    O335    O    0.74992   0.18517   0.38609   1.000
    O336    O    0.74988   0.32509   0.40251   1.000
    O337    O    0.24987   0.32509   0.40251   1.000
    O338    O    0.43461   0.49802   0.39713   1.000
    O339    O    0.93459   0.49801   0.39714   1.000
    O340    O    0.06490   0.49824   0.39728   1.000
    O341    O    0.56488   0.49826   0.39732   1.000
    O342    O    0.99968   0.52571   0.40851   1.000
    O343    O    0.93076   0.56001   0.42247   1.000
    O344    O    0.49968   0.52572   0.40851   1.000
    O345    O    0.43078   0.56001   0.42247   1.000
    O346    O    0.06847   0.56022   0.42269   1.000
    O347    O    0.56846   0.56022   0.42269   1.000
    O348    O    0.82873   0.59834   0.43527   1.000
    O349    O    0.67039   0.59847   0.43543   1.000
    O350    O    0.74887   0.51854   0.43788   1.000
    O351    O    0.74898   0.65548   0.47577   1.000
    O352    O    0.32875   0.59834   0.43528   1.000
    O353    O    0.17040   0.59847   0.43543   1.000
    O354    O    0.24889   0.51854   0.43788   1.000
    O355    O    0.24900   0.65549   0.47581   1.000
    O356    O    0.74904   0.39054   0.43832   1.000
    O357    O    0.75074   0.31881   0.45866   1.000
    O358    O    0.24905   0.39054   0.43832   1.000
    O359    O    0.25074   0.31881   0.45869   1.000
    O360    O    0.93065   0.62937   0.44999   1.000
    O361    O    0.43067   0.62937   0.45000   1.000
    O362    O    0.56834   0.62956   0.45025   1.000
    O363    O    0.06835   0.62956   0.45021   1.000
    O364    O    0.99945   0.66442   0.46354   1.000
    O365    O    0.93415   0.69226   0.47427   1.000
    O366    O    0.49945   0.66441   0.46359   1.000
    O367    O    0.43417   0.69225   0.47430   1.000
    O368    O    0.06468   0.69238   0.47454   1.000
    O369    O    0.56467   0.69237   0.47458   1.000
    O370    O    0.75097   0.34452   0.52419   1.000
    O371    O    0.25098   0.34453   0.52421   1.000
    O372    O    0.43530   0.30764   0.52541   1.000
    O373    O    0.93530   0.30764   0.52546   1.000
    O374    O    0.56580   0.30776   0.52570   1.000
    O375    O    0.06583   0.30776   0.52575   1.000
    O376    O    0.74922   0.68119   0.54129   1.000
    O377    O    0.24925   0.68121   0.54133   1.000
    O378    O    0.50052   0.33560   0.53641   1.000
    O379    O    0.43163   0.37045   0.54975   1.000
    O380    O    0.00052   0.33560   0.53645   1.000
    O381    O    0.93162   0.37046   0.54978   1.000
    O382    O    0.56931   0.37064   0.55000   1.000
    O383    O    0.06932   0.37065   0.55002   1.000
    O384    O    0.25094   0.60948   0.56169   1.000
    O385    O    0.25110   0.48148   0.56212   1.000
    O386    O    0.75091   0.60947   0.56169   1.000
    O387    O    0.75108   0.48147   0.56214   1.000
    O388    O    0.32958   0.40155   0.56457   1.000
    O389    O    0.43152   0.43979   0.57731   1.000
    O390    O    0.82957   0.40154   0.56459   1.000
    O391    O    0.93150   0.43981   0.57732   1.000
    O392    O    0.67123   0.40167   0.56473   1.000
    O393    O    0.56920   0.43999   0.57752   1.000
    O394    O    0.17124   0.40169   0.56473   1.000
    O395    O    0.06921   0.44001   0.57754   1.000
    O396    O    0.75008   0.67492   0.59751   1.000
    O397    O    0.25013   0.67492   0.59751   1.000
    O398    O    0.24921   0.33194   0.60147   1.000
    O399    O    0.25117   0.40385   0.62198   1.000
    O400    O    0.74922   0.33192   0.60148   1.000
    O401    O    0.75116   0.40383   0.62199   1.000
    O402    O    0.50030   0.47429   0.59150   1.000
    O403    O    0.43509   0.50175   0.60269   1.000
    O404    O    0.00029   0.47431   0.59151   1.000
    O405    O    0.93507   0.50178   0.60268   1.000
    O406    O    0.56537   0.50199   0.60287   1.000
    O407    O    0.06538   0.50202   0.60287   1.000
    O408    O    0.25011   0.81484   0.61386   1.000
    O409    O    0.75002   0.81484   0.61388   1.000
    O410    O    0.25017   0.74484   0.63256   1.000
    O411    O    0.25022   0.66866   0.65741   1.000
    O412    O    0.75009   0.74484   0.63257   1.000
    O413    O    0.75015   0.66866   0.65742   1.000
    O414    O    0.25022   0.81380   0.66460   1.000
    O415    O    0.75012   0.81380   0.66506   1.000
    O416    O    0.24896   0.29364   0.66048   1.000
    O417    O    0.74899   0.29362   0.66049   1.000
    O418    O    0.25092   0.36555   0.68099   1.000
    O419    O    0.75093   0.36553   0.68100   1.000
    O420    O    0.25029   0.60332   0.68323   1.000
    O421    O    0.75023   0.60333   0.68324   1.000
    O422    O    0.24989   0.30059   0.71674   1.000
    O423    O    0.74988   0.30057   0.71676   1.000
    O424    O    0.25018   0.66241   0.71457   1.000
    O425    O    0.75012   0.66242   0.71455   1.000
    O426    O    0.25033   0.88563   0.69500   1.000
    O427    O    0.25021   0.80746   0.72235   1.000
    O428    O    0.78674   0.95680   0.69520   1.000
    O429    O    0.28686   0.95679   0.69521   1.000
    O430    O    0.71380   0.95679   0.69529   1.000
    O431    O    0.21392   0.95679   0.69529   1.000
    O432    O    0.75022   0.88564   0.69543   1.000
    O433    O    0.75012   0.80748   0.72279   1.000
    O434    O    0.24973   0.16160   0.73526   1.000
    O435    O    0.74974   0.16158   0.73530   1.000
    O436    O    0.75006   0.73227   0.74745   1.000
    O437    O    0.74999   0.66260   0.76565   1.000
    O438    O    0.25013   0.73225   0.74746   1.000
    O439    O    0.25005   0.66258   0.76567   1.000
    O440    O    0.24988   0.23146   0.75304   1.000
    O441    O    0.25008   0.30693   0.77725   1.000
    O442    O    0.74982   0.23145   0.75307   1.000
    O443    O    0.74995   0.30693   0.77726   1.000
    O444    O    0.74998   0.80175   0.78335   1.000
    O445    O    0.25005   0.80172   0.78336   1.000
    O446    O    0.25000   0.16197   0.78637   1.000
    O447    O    0.74989   0.16197   0.78640   1.000
    O448    O    0.21361   0.45651   0.80302   1.000
    O449    O    0.71354   0.45653   0.80302   1.000
    O450    O    0.25019   0.38541   0.80407   1.000
    O451    O    0.28653   0.45667   0.80439   1.000
    O452    O    0.75004   0.38541   0.80407   1.000
    O453    O    0.78645   0.45665   0.80439   1.000
    O454    O    0.25040   0.31389   0.83494   1.000
    O455    O    0.75010   0.31390   0.83495   1.000
    O456    O    0.75067   0.86702   0.81882   1.000
    O457    O    0.74906   0.79526   0.83962   1.000
    O458    O    0.25073   0.86698   0.81883   1.000
    O459    O    0.24911   0.79522   0.83962   1.000
    O460    O    0.25014   0.10323   0.81804   1.000
    O461    O    0.25028   0.16882   0.84351   1.000
    O462    O    0.75000   0.10324   0.81805   1.000
    O463    O    0.75001   0.16884   0.84353   1.000
    O464    O    0.75050   0.90514   0.87786   1.000
    O465    O    0.25054   0.90509   0.87787   1.000
    O466    O    0.74890   0.83338   0.89866   1.000
    O467    O    0.24892   0.83333   0.89866   1.000
    O468    O    0.25047   0.24526   0.86786   1.000
    O469    O    0.25067   0.31548   0.88611   1.000
    O470    O    0.75009   0.24529   0.86788   1.000
    O471    O    0.75019   0.31551   0.88613   1.000
    O472    O    0.25043   0.17588   0.90342   1.000
    O473    O    0.75000   0.17592   0.90345   1.000
    O474    O    0.56442   0.00345   0.89735   1.000
    O475    O    0.06446   0.00345   0.89736   1.000
    O476    O    0.43417   0.00309   0.89759   1.000
    O477    O    0.93417   0.00312   0.89760   1.000
    O478    O    0.99941   0.97551   0.90857   1.000
    O479    O    0.06836   0.94103   0.92229   1.000
    O480    O    0.49940   0.97550   0.90857   1.000
    O481    O    0.56834   0.94105   0.92229   1.000
    O482    O    0.93065   0.94071   0.92254   1.000
    O483    O    0.43066   0.94070   0.92255   1.000
    O484    O    0.67041   0.90266   0.93509   1.000
    O485    O    0.82874   0.90243   0.93526   1.000
    O486    O    0.75064   0.98277   0.93896   1.000
    O487    O    0.17042   0.90262   0.93509   1.000
    O488    O    0.32876   0.90240   0.93527   1.000
    O489    O    0.25060   0.98272   0.93894   1.000
    O490    O    0.25104   0.11091   0.93990   1.000
    O491    O    0.24986   0.18295   0.95955   1.000
    O492    O    0.75084   0.11097   0.93995   1.000
    O493    O    0.74915   0.18300   0.95959   1.000
    O494    O    0.06854   0.87121   0.94934   1.000
    O495    O    0.56854   0.87123   0.94936   1.000
    O496    O    0.93084   0.87090   0.94922   1.000
    O497    O    0.43086   0.87090   0.94964   1.000
    O498    O    0.99978   0.83587   0.96230   1.000
    O499    O    0.93460   0.80764   0.97310   1.000
    O500    O    0.06514   0.80793   0.97322   1.000
    O501    O    0.49980   0.83589   0.96273   1.000
    O502    O    0.56515   0.80797   0.97325   1.000
    O503    O    0.43464   0.80765   0.97353   1.000
loop_
    _geom_bond_atom_site_label_1
    _geom_bond_atom_site_label_2
    _geom_bond_distance
    _geom_bond_site_symmetry_2
    _ccdc_geom_bond_type
    C38    O232      0.54560      .   S
    C94    O232      0.54560      .   S
    C39    O233      0.54559      .   S
    C95    O233      0.54559      .   S
    C19    O234      0.54586      .   S
    C75    O234      0.54586      .   S
    C18    O235      0.54559      .   S
    C74    O235      0.54559      .   S
    C207   O236      0.63723      .   S
    C111   O236      0.63723      .   S
    C207   O237      1.17506  1_554   S
    C7     O237      1.17506      .   S
    C206   O238      0.63733      .   S
    C110   O238      0.63733      .   S
    C206   O239      1.17482  1_554   S
    C6     O239      1.17482      .   S
    C94    O240      0.69679  1_455   S
    C75    O240      0.69679      .   S
    C94    O241      0.67216      .   S
    C174   O241      0.67216      .   S
    C95    O242      0.69653      .   S
    C74    O242      0.69653      .   S
    C95    O243      0.67184      .   S
    C175   O243      0.67184      .   S
    C75    O244      0.67219      .   S
    C165   O244      0.67219      .   S
    C74    O245      0.67218      .   S
    C164   O245      0.67218      .   S
    C205   O246      0.64065      .   S
    C111   O246      0.64065      .   S
    C205   O247      1.20906  1_565   S
    C5     O247      1.20906      .   S
    C204   O248      0.64066      .   S
    C110   O248      0.64066      .   S
    C204   O249      1.20915  1_565   S
    C4     O249      1.20915      .   S
    C174   O250      1.19986      .   S
    C4     O250      1.19986      .   S
    C174   O251      0.67186      .   S
    C92    O251      0.67186      .   S
    C175   O252      1.19962      .   S
    C5     O252      1.19962      .   S
    C175   O253      0.67220      .   S
    C93    O253      0.67220      .   S
    C165   O254      1.19971      .   S
    C5     O254      1.19971      .   S
    C165   O255      0.67195      .   S
    C73    O255      0.67195      .   S
    C164   O256      1.19932      .   S
    C4     O256      1.19932      .   S
    C164   O257      0.67191      .   S
    C72    O257      0.67191      .   S
    C111   O258      0.74908      .   S
    C103   O258      0.74908      .   S
    C110   O259      0.74898      .   S
    C102   O259      0.74898      .   S
    C4     O260      1.20128      .   S
    C218   O260      1.20128      .   S
    C4     O261      1.18980      .   S
    C216   O261      1.18980      .   S
    C4     O262      1.17487      .   S
    C214   O262      1.17487  1_556   S
    C5     O263      1.20108      .   S
    C219   O263      1.20108      .   S
    C5     O264      1.18990      .   S
    C217   O264      1.18990      .   S
    C5     O265      1.17503      .   S
    C215   O265      1.17503  1_556   S
    C92    O266      0.69683      .   S
    C73    O266      0.69683  1_655   S
    C92    O267      0.54508  1_545   S
    C36    O267      0.54508      .   S
    C93    O268      0.69658      .   S
    C72    O268      0.69658      .   S
    C93    O269      0.54521  1_545   S
    C37    O269      0.54521      .   S
    C73    O270      0.54512  1_545   S
    C17    O270      0.54512      .   S
    C72    O271      0.54513  1_545   S
    C16    O271      0.54513      .   S
    C41    O272      0.54430      .   S
    C101   O272      0.54430      .   S
    C40    O273      0.54422      .   S
    C100   O273      0.54422      .   S
    C103   O274      0.70158      .   S
    C101   O274      0.70158      .   S
    C103   O275      0.70112      .   S
    C105   O275      0.70112      .   S
    C102   O276      0.70158      .   S
    C100   O276      0.70158      .   S
    C102   O277      0.70121      .   S
    C104   O277      0.70121      .   S
    C101   O278      0.69358      .   S
    C99    O278      0.69358      .   S
    C100   O279      0.69368      .   S
    C98    O279      0.69368      .   S
    C219   O280      0.63427      .   S
    C141   O280      0.63427      .   S
    C218   O281      0.63424      .   S
    C140   O281      0.63424      .   S
    C216   O282      0.64046      .   S
    C140   O282      0.64046      .   S
    C217   O283      0.64045      .   S
    C141   O283      0.64045      .   S
    C43    O284      0.54459      .   S
    C105   O284      0.54459      .   S
    C42    O285      0.54452      .   S
    C104   O285      0.54452      .   S
    C105   O286      0.69665      .   S
    C107   O286      0.69665      .   S
    C104   O287      0.69666      .   S
    C106   O287      0.69666      .   S
    C140   O288      0.75144      .   S
    C128   O288      0.75144      .   S
    C141   O289      0.75149      .   S
    C129   O289      0.75149      .   S
    C195   O290      0.61958      .   S
    C177   O290      0.61958      .   S
    C194   O291      0.61957      .   S
    C176   O291      0.61957      .   S
    C99    O292      0.74061      .   S
    C177   O292      0.74061      .   S
    C99    O293      0.70073      .   S
    C97    O293      0.70073      .   S
    C98    O294      0.74062      .   S
    C176   O294      0.74062      .   S
    C98    O295      0.70143      .   S
    C96    O295      0.70143      .   S
    C177   O296      0.61955      .   S
    C185   O296      0.61955      .   S
    C176   O297      0.61956      .   S
    C184   O297      0.61956      .   S
    C57    O298      0.54381      .   S
    C139   O298      0.54381      .   S
    C56    O299      0.54374      .   S
    C138   O299      0.54374      .   S
    C107   O300      0.70116      .   S
    C97    O300      0.70116      .   S
    C107   O301      0.54386      .   S
    C45    O301      0.54386      .   S
    C106   O302      0.70125      .   S
    C96    O302      0.70125      .   S
    C106   O303      0.54343      .   S
    C44    O303      0.54343      .   S
    C128   O304      0.70134      .   S
    C138   O304      0.70134      .   S
    C128   O305      0.70156      .   S
    C130   O305      0.70156      .   S
    C129   O306      0.70133      .   S
    C139   O306      0.70133      .   S
    C129   O307      0.70144      .   S
    C131   O307      0.70144      .   S
    C97    O308      0.75238      .   S
    C109   O308      0.75238      .   S
    C96    O309      0.75121      .   S
    C108   O309      0.75121      .   S
    C138   O310      0.69636      .   S
    C136   O310      0.69636      .   S
    C139   O311      0.69647      .   S
    C137   O311      0.69647      .   S
    C180   O312      0.74044      .   S
    C130   O312      0.74044      .   S
    C180   O313      0.61963      .   S
    C198   O313      0.61963      .   S
    C180   O314      0.61948      .   S
    C188   O314      0.61948      .   S
    C181   O315      0.74044      .   S
    C131   O315      0.74044      .   S
    C181   O316      0.61963      .   S
    C199   O316      0.61963      .   S
    C181   O317      0.61949      .   S
    C189   O317      0.61949      .   S
    C130   O318      0.69366      .   S
    C132   O318      0.69366      .   S
    C131   O319      0.69368      .   S
    C133   O319      0.69368      .   S
    C136   O320      0.54460      .   S
    C54    O320      0.54460      .   S
    C136   O321      0.70128      .   S
    C134   O321      0.70128      .   S
    C137   O322      0.54460      .   S
    C55    O322      0.54460      .   S
    C137   O323      0.70117      .   S
    C135   O323      0.70117      .   S
    C108   O324      0.64078      .   S
    C200   O324      0.64078      .   S
    C108   O325      0.63435      .   S
    C202   O325      0.63435      .   S
    C109   O326      0.64074      .   S
    C201   O326      0.64074      .   S
    C109   O327      0.63414      .   S
    C203   O327      0.63414      .   S
    C201   O328      1.18575      .   S
    C1     O328      1.18575      .   S
    C200   O329      1.18575      .   S
    C0     O329      1.18575      .   S
    C203   O330      1.20523      .   S
    C1     O330      1.20523      .   S
    C202   O331      1.20520      .   S
    C0     O331      1.20520      .   S
    C132   O332      0.70136      .   S
    C134   O332      0.70136      .   S
    C132   O333      0.54425      .   S
    C52    O333      0.54425      .   S
    C133   O334      0.70137      .   S
    C135   O334      0.70137      .   S
    C133   O335      0.54353      .   S
    C53    O335      0.54353      .   S
    C135   O336      0.74904      .   S
    C143   O336      0.74904      .   S
    C134   O337      0.74903      .   S
    C142   O337      0.74903      .   S
    C28    O338      0.54521      .   S
    C84    O338      0.54521      .   S
    C29    O339      0.54518      .   S
    C85    O339      0.54518      .   S
    C8     O340      0.54555      .   S
    C64    O340      0.54555      .   S
    C9     O341      0.54519      .   S
    C65    O341      0.54519      .   S
    C85    O342      0.69685      .   S
    C64    O342      0.69685  1_455   S
    C85    O343      0.67189      .   S
    C171   O343      0.67189      .   S
    C84    O344      0.69662      .   S
    C65    O344      0.69662      .   S
    C84    O345      0.67184      .   S
    C170   O345      0.67184      .   S
    C64    O346      0.67191      .   S
    C160   O346      0.67191      .   S
    C65    O347      0.67187      .   S
    C161   O347      0.67187      .   S
    C1     O348      1.19968      .   S
    C171   O348      1.19968      .   S
    C1     O349      1.20001      .   S
    C161   O349      1.20001      .   S
    C1     O350      1.20475      .   S
    C221   O350      1.20475      .   S
    C1     O351      1.16609      .   S
    C231   O351      1.16609      .   S
    C0     O352      1.19972      .   S
    C170   O352      1.19972      .   S
    C0     O353      1.20000      .   S
    C160   O353      1.20000      .   S
    C0     O354      1.20474      .   S
    C220   O354      1.20474      .   S
    C0     O355      1.16657      .   S
    C230   O355      1.16657      .   S
    C143   O356      0.63920      .   S
    C221   O356      0.63920      .   S
    C143   O357      0.63756      .   S
    C223   O357      0.63756      .   S
    C142   O358      0.63922      .   S
    C220   O358      0.63922      .   S
    C142   O359      0.63806      .   S
    C222   O359      0.63806      .   S
    C171   O360      0.67217      .   S
    C87    O360      0.67217      .   S
    C170   O361      0.67223      .   S
    C86    O361      0.67223      .   S
    C161   O362      0.67219      .   S
    C67    O362      0.67219      .   S
    C160   O363      0.67188      .   S
    C66    O363      0.67188      .   S
    C87    O364      0.69674      .   S
    C66    O364      0.69674  1_455   S
    C87    O365      0.54553      .   S
    C31    O365      0.54553      .   S
    C86    O366      0.69651      .   S
    C67    O366      0.69651      .   S
    C86    O367      0.54554      .   S
    C30    O367      0.54554      .   S
    C66    O368      0.54584      .   S
    C10    O368      0.54584      .   S
    C67    O369      0.54554      .   S
    C11    O369      0.54554      .   S
    C223   O370      1.16694      .   S
    C3     O370      1.16694      .   S
    C222   O371      1.16648      .   S
    C2     O371      1.16648      .   S
    C26    O372      0.54555      .   S
    C82    O372      0.54555      .   S
    C27    O373      0.54552      .   S
    C83    O373      0.54552      .   S
    C15    O374      0.54552      .   S
    C71    O374      0.54552      .   S
    C14    O375      0.54551      .   S
    C70    O375      0.54551      .   S
    C231   O376      0.63846      .   S
    C159   O376      0.63846      .   S
    C230   O377      0.63799      .   S
    C158   O377      0.63799      .   S
    C82    O378      0.69651      .   S
    C71    O378      0.69651      .   S
    C82    O379      0.67217      .   S
    C168   O379      0.67217      .   S
    C83    O380      0.69674  1_655   S
    C70    O380      0.69674      .   S
    C83    O381      0.67215      .   S
    C169   O381      0.67215      .   S
    C71    O382      0.67217      .   S
    C163   O382      0.67217      .   S
    C70    O383      0.67211      .   S
    C162   O383      0.67211      .   S
    C228   O384      0.63921      .   S
    C158   O384      0.63921      .   S
    C228   O385      1.20472      .   S
    C2     O385      1.20472      .   S
    C229   O386      0.63920      .   S
    C159   O386      0.63920      .   S
    C229   O387      1.20479      .   S
    C3     O387      1.20479      .   S
    C168   O388      1.20003      .   S
    C2     O388      1.20003      .   S
    C168   O389      0.67192      .   S
    C80    O389      0.67192      .   S
    C169   O390      1.19999      .   S
    C3     O390      1.19999      .   S
    C169   O391      0.67192      .   S
    C81    O391      0.67192      .   S
    C163   O392      1.19972      .   S
    C3     O392      1.19972      .   S
    C163   O393      0.67193      .   S
    C69    O393      0.67193      .   S
    C162   O394      1.19969      .   S
    C2     O394      1.19969      .   S
    C162   O395      0.67198      .   S
    C68    O395      0.67198      .   S
    C159   O396      0.74904      .   S
    C151   O396      0.74904      .   S
    C158   O397      0.74901      .   S
    C150   O397      0.74901      .   S
    C2     O398      1.20523      .   S
    C210   O398      1.20523      .   S
    C2     O399      1.18575      .   S
    C208   O399      1.18575      .   S
    C3     O400      1.20525      .   S
    C211   O400      1.20525      .   S
    C3     O401      1.18574      .   S
    C209   O401      1.18574      .   S
    C80    O402      0.69662      .   S
    C69    O402      0.69662      .   S
    C80    O403      0.54518      .   S
    C24    O403      0.54518      .   S
    C81    O404      0.69685  1_655   S
    C68    O404      0.69685      .   S
    C81    O405      0.54516      .   S
    C25    O405      0.54516      .   S
    C69    O406      0.54517      .   S
    C13    O406      0.54517      .   S
    C68    O407      0.54518      .   S
    C12    O407      0.54518      .   S
    C58    O408      0.54398      .   S
    C148   O408      0.54398      .   S
    C59    O409      0.54423      .   S
    C149   O409      0.54423      .   S
    C150   O410      0.70134      .   S
    C148   O410      0.70134      .   S
    C150   O411      0.70120      .   S
    C152   O411      0.70120      .   S
    C151   O412      0.70137      .   S
    C149   O412      0.70137      .   S
    C151   O413      0.70125      .   S
    C153   O413      0.70125      .   S
    C148   O414      0.68543      .   S
    C146   O414      0.68543      .   S
    C149   O415      0.69368      .   S
    C147   O415      0.69368      .   S
    C210   O416      0.63411      .   S
    C124   O416      0.63411      .   S
    C211   O417      0.63412      .   S
    C125   O417      0.63412      .   S
    C208   O418      0.64074      .   S
    C124   O418      0.64074      .   S
    C209   O419      0.64074      .   S
    C125   O419      0.64074      .   S
    C60    O420      0.54460      .   S
    C152   O420      0.54460      .   S
    C61    O421      0.54460      .   S
    C153   O421      0.54460      .   S
    C124   O422      0.75153      .   S
    C112   O422      0.75153      .   S
    C125   O423      0.75159      .   S
    C113   O423      0.75159      .   S
    C152   O424      0.69646      .   S
    C154   O424      0.69646      .   S
    C153   O425      0.69610      .   S
    C155   O425      0.69610      .   S
    C146   O426      0.74066      .   S
    C182   O426      0.74066      .   S
    C146   O427      0.70936      .   S
    C144   O427      0.70936      .   S
    C197   O428      0.61950      .   S
    C183   O428      0.61950      .   S
    C196   O429      0.61950      .   S
    C182   O429      0.61950      .   S
    C191   O430      0.61961      .   S
    C183   O430      0.61961      .   S
    C190   O431      0.61963      .   S
    C182   O431      0.61963      .   S
    C147   O432      0.74044      .   S
    C183   O432      0.74044      .   S
    C147   O433      0.70143      .   S
    C145   O433      0.70143      .   S
    C50    O434      0.54381      .   S
    C122   O434      0.54381      .   S
    C51    O435      0.54389      .   S
    C123   O435      0.54389      .   S
    C155   O436      0.70136      .   S
    C145   O436      0.70136      .   S
    C155   O437      0.54408      .   S
    C63    O437      0.54408      .   S
    C154   O438      0.70133      .   S
    C144   O438      0.70133      .   S
    C154   O439      0.54382      .   S
    C62    O439      0.54382      .   S
    C112   O440      0.70125      .   S
    C122   O440      0.70125      .   S
    C112   O441      0.70148      .   S
    C114   O441      0.70148      .   S
    C113   O442      0.70126      .   S
    C123   O442      0.70126      .   S
    C113   O443      0.70143      .   S
    C115   O443      0.70143      .   S
    C145   O444      0.75150      .   S
    C157   O444      0.75150      .   S
    C144   O445      0.75155      .   S
    C156   O445      0.75155      .   S
    C122   O446      0.69669      .   S
    C120   O446      0.69669      .   S
    C123   O447      0.69644      .   S
    C121   O447      0.69644      .   S
    C192   O448      0.61955      .   S
    C178   O448      0.61955      .   S
    C193   O449      0.61955      .   S
    C179   O449      0.61955      .   S
    C178   O450      0.74062      .   S
    C114   O450      0.74062      .   S
    C178   O451      0.61958      .   S
    C186   O451      0.61958      .   S
    C179   O452      0.74063      .   S
    C115   O452      0.74063      .   S
    C179   O453      0.61957      .   S
    C187   O453      0.61957      .   S
    C114   O454      0.69363      .   S
    C116   O454      0.69363      .   S
    C115   O455      0.69366      .   S
    C117   O455      0.69366      .   S
    C157   O456      0.64046      .   S
    C225   O456      0.64046      .   S
    C157   O457      0.63424      .   S
    C227   O457      0.63424      .   S
    C156   O458      0.64045      .   S
    C224   O458      0.64045      .   S
    C156   O459      0.63422      .   S
    C226   O459      0.63422      .   S
    C120   O460      0.54453      .   S
    C48    O460      0.54453      .   S
    C120   O461      0.70116      .   S
    C118   O461      0.70116      .   S
    C121   O462      0.54451      .   S
    C49    O462      0.54451      .   S
    C121   O463      0.70130      .   S
    C119   O463      0.70130      .   S
    C225   O464      1.18993      .   S
    C7     O464      1.18993      .   S
    C224   O465      1.18994      .   S
    C6     O465      1.18994      .   S
    C227   O466      1.20110      .   S
    C7     O466      1.20110      .   S
    C226   O467      1.20117      .   S
    C6     O467      1.20117      .   S
    C116   O468      0.70158      .   S
    C118   O468      0.70158      .   S
    C116   O469      0.54425      .   S
    C46    O469      0.54425      .   S
    C117   O470      0.70158      .   S
    C119   O470      0.70158      .   S
    C117   O471      0.54423      .   S
    C47    O471      0.54423      .   S
    C118   O472      0.74901      .   S
    C126   O472      0.74901      .   S
    C119   O473      0.74903      .   S
    C127   O473      0.74903      .   S
    C33    O474      0.54518      .   S
    C89    O474      0.54518  1_565   S
    C32    O475      0.54513      .   S
    C88    O475      0.54513  1_565   S
    C20    O476      0.54514      .   S
    C76    O476      0.54514  1_565   S
    C21    O477      0.54517      .   S
    C77    O477      0.54517  1_565   S
    C88    O478      0.69683  1_455   S
    C77    O478      0.69683      .   S
    C88    O479      0.67191      .   S
    C172   O479      0.67191      .   S
    C89    O480      0.69658      .   S
    C76    O480      0.69658      .   S
    C89    O481      0.67189      .   S
    C173   O481      0.67189      .   S
    C77    O482      0.67194      .   S
    C167   O482      0.67194      .   S
    C76    O483      0.67194      .   S
    C166   O483      0.67194      .   S
    C7     O484      1.19944      .   S
    C173   O484      1.19944      .   S
    C7     O485      1.19979      .   S
    C167   O485      1.19979      .   S
    C7     O486      1.20921      .   S
    C213   O486      1.20921  1_545   S
    C6     O487      1.19943      .   S
    C172   O487      1.19943      .   S
    C6     O488      1.19986      .   S
    C166   O488      1.19986      .   S
    C6     O489      1.20905      .   S
    C212   O489      1.20905  1_545   S
    C126   O490      0.64065      .   S
    C212   O490      0.64065      .   S
    C126   O491      0.63721      .   S
    C214   O491      0.63721      .   S
    C127   O492      0.64069      .   S
    C213   O492      0.64069      .   S
    C127   O493      0.63727      .   S
    C215   O493      0.63727      .   S
    C172   O494      0.67218      .   S
    C90    O494      0.67218      .   S
    C173   O495      0.67220      .   S
    C91    O495      0.67220      .   S
    C167   O496      0.66872      .   S
    C79    O496      0.66872      .   S
    C166   O497      0.67215      .   S
    C78    O497      0.67215      .   S
    C79    O498      0.69680      .   S
    C90    O498      0.69680  1_455   S
    C79    O499      0.54909      .   S
    C23    O499      0.54909      .   S
    C90    O500      0.54560      .   S
    C34    O500      0.54560      .   S
    C91    O501      0.69655      .   S
    C78    O501      0.69655      .   S
    C91    O502      0.54557      .   S
    C35    O502      0.54557      .   S
    C78    O503      0.54554      .   S
    C22    O503      0.54554      .   S
