# CIF file generated by openbabel 2.4.90, see http://openbabel.sf.net
data_I
_chemical_name_common ''
_cell_length_a 11.706
_cell_length_b 20.742
_cell_length_c 23.396
_cell_angle_alpha 86.75
_cell_angle_beta 87.624
_cell_angle_gamma 83.614
_space_group_name_H-M_alt 'P 1'
_space_group_name_Hall 'P 1'
loop_
    _symmetry_equiv_pos_as_xyz
    x,y,z
loop_
    _atom_site_label
    _atom_site_type_symbol
    _atom_site_fract_x
    _atom_site_fract_y
    _atom_site_fract_z
    _atom_site_occupancy
    La0     La   0.11065   0.07129   0.73552   1.000
    La1     La   0.11064   0.57129   0.23552   1.000
    La2     La   0.11065   0.57128   0.73552   1.000
    La3     La   0.61067   0.07129   0.23551   1.000
    La4     La   0.61067   0.07129   0.73552   1.000
    La5     La   0.61066   0.57129   0.23552   1.000
    La6     La   0.61067   0.57128   0.73552   1.000
    La7     La   0.38931   0.42870   0.26448   1.000
    La8     La   0.38931   0.42870   0.76448   1.000
    La9     La   0.38930   0.92870   0.26448   1.000
    La10    La   0.38932   0.92869   0.76448   1.000
    La11    La   0.88933   0.42870   0.26448   1.000
    La12    La   0.88933   0.42870   0.76448   1.000
    La13    La   0.88932   0.92870   0.26448   1.000
    La14    La   0.88934   0.92869   0.76448   1.000
    La15    La   0.11065   0.07129   0.23551   1.000
