# CIF file generated by openbabel 2.4.90, see http://openbabel.sf.net
data_I
_chemical_name_common ''
_cell_length_a 11.706
_cell_length_b 20.742
_cell_length_c 23.396
_cell_angle_alpha 86.75
_cell_angle_beta 87.624
_cell_angle_gamma 83.614
_space_group_name_H-M_alt 'P 1'
_space_group_name_Hall 'P 1'
loop_
    _symmetry_equiv_pos_as_xyz
    x,y,z
loop_
    _atom_site_label
    _atom_site_type_symbol
    _atom_site_fract_x
    _atom_site_fract_y
    _atom_site_fract_z
    _atom_site_occupancy
    Zr0     Zr   0.11065   0.07129   0.23551   1.000
    Zr1     Zr   0.11065   0.07129   0.73552   1.000
    Zr2     Zr   0.11064   0.57129   0.23552   1.000
    Zr3     Zr   0.11065   0.57128   0.73552   1.000
    Zr4     Zr   0.61067   0.07129   0.23551   1.000
    Zr5     Zr   0.61067   0.07129   0.73552   1.000
    Zr6     Zr   0.61066   0.57129   0.23552   1.000
    Zr7     Zr   0.61067   0.57128   0.73552   1.000
    Zr8     Zr   0.38931   0.42870   0.26448   1.000
    Zr9     Zr   0.38931   0.42870   0.76448   1.000
    Zr10    Zr   0.38930   0.92870   0.26448   1.000
    Zr11    Zr   0.38932   0.92869   0.76448   1.000
    Zr12    Zr   0.88933   0.42870   0.26448   1.000
    Zr13    Zr   0.88933   0.42870   0.76448   1.000
    Zr14    Zr   0.88932   0.92870   0.26448   1.000
    Zr15    Zr   0.88934   0.92869   0.76448   1.000
    N16     N    0.99998   0.74999   0.24999   1.000
    O17     O    0.95715   0.61706   0.26555   1.000
    O18     O    0.83902   0.67123   0.25839   1.000
    O19     O    0.16094   0.82876   0.24158   1.000
    O20     O    0.04282   0.88292   0.23444   1.000
    N21     N    0.24999   0.49999   0.49997   1.000
    O22     O    0.10998   0.45653   0.39804   1.000
    O23     O    0.39000   0.54344   0.60193   1.000
    O24     O    0.29895   0.48638   0.61545   1.000
    O25     O    0.20101   0.51360   0.38453   1.000
    N26     N    0.49999   0.24999   0.74999   1.000
    O27     O    0.66096   0.32876   0.74158   1.000
    O28     O    0.33902   0.17123   0.75839   1.000
    O29     O    0.45715   0.11706   0.76555   1.000
    O30     O    0.54283   0.38292   0.73445   1.000
    N31     N    0.75000   0.49999   0.49994   1.000
    O32     O    0.60999   0.45653   0.39803   1.000
    O33     O    0.89001   0.54344   0.60190   1.000
    O34     O    0.70103   0.51360   0.38450   1.000
    O35     O    0.79896   0.48638   0.61543   1.000
    N36     N    0.99998   0.25000   0.24999   1.000
    O37     O    0.95715   0.11706   0.26555   1.000
    O38     O    0.83903   0.17123   0.25839   1.000
    O39     O    0.04281   0.38293   0.23445   1.000
    O40     O    0.16095   0.32877   0.24158   1.000
    N41     N    0.49998   0.25000   0.24999   1.000
    O42     O    0.66096   0.32877   0.24158   1.000
    O43     O    0.54282   0.38293   0.23442   1.000
    O44     O    0.45714   0.11706   0.26555   1.000
    O45     O    0.33902   0.17123   0.25839   1.000
    N46     N    0.49999   0.74999   0.75000   1.000
    O47     O    0.45715   0.61705   0.76555   1.000
    O48     O    0.33902   0.67122   0.75840   1.000
    O49     O    0.54283   0.88292   0.73445   1.000
    O50     O    0.66096   0.82876   0.74159   1.000
    N51     N    0.49998   0.74999   0.24999   1.000
    O52     O    0.54282   0.88292   0.23445   1.000
    O53     O    0.45714   0.61706   0.26555   1.000
    O54     O    0.66095   0.82876   0.24158   1.000
    O55     O    0.33902   0.67123   0.25839   1.000
    N56     N    0.99999   0.74999   0.75000   1.000
    O57     O    0.95716   0.61705   0.76556   1.000
    O58     O    0.16095   0.82876   0.74159   1.000
    O59     O    0.04282   0.88292   0.73443   1.000
    O60     O    0.83903   0.67122   0.75840   1.000
    N61     N    0.75000   0.99999   1.00000   1.000
    O62     O    0.89000   0.04345   0.10194   1.000
    O63     O    0.70103   0.01360   0.88454   1.000
    O64     O    0.79896   0.98638   0.11546   1.000
    O65     O    0.60999   0.95652   0.89806   1.000
    N66     N    0.24999   0.49999   1.00000   1.000
    O67     O    0.39000   0.54345   0.10194   1.000
    O68     O    0.29895   0.48638   0.11546   1.000
    O69     O    0.10999   0.45653   0.89806   1.000
    O70     O    0.20102   0.51360   0.88454   1.000
    N71     N    0.24999   0.99999   1.00000   1.000
    O72     O    0.29895   0.98638   0.11546   1.000
    O73     O    0.20102   0.01360   0.88454   1.000
    O74     O    0.39000   0.04345   0.10194   1.000
    O75     O    0.10999   0.95652   0.89806   1.000
    N76     N    0.75000   0.99999   0.49995   1.000
    O77     O    0.70103   0.01360   0.38450   1.000
    O78     O    0.60999   0.95653   0.39803   1.000
    O79     O    0.89001   0.04345   0.60192   1.000
    O80     O    0.79897   0.98638   0.61544   1.000
    N81     N    0.99999   0.24999   0.75000   1.000
    O82     O    0.83903   0.17123   0.75840   1.000
    O83     O    0.16095   0.32876   0.74159   1.000
    O84     O    0.95716   0.11706   0.76556   1.000
    O85     O    0.04282   0.38292   0.73445   1.000
    N86     N    0.24999   0.99999   0.49999   1.000
    O87     O    0.20102   0.01360   0.38452   1.000
    O88     O    0.29895   0.98638   0.61546   1.000
    O89     O    0.10998   0.95653   0.39805   1.000
    O90     O    0.39000   0.04345   0.60194   1.000
    N91     N    0.75000   0.49999   1.00000   1.000
    O92     O    0.70103   0.51360   0.88454   1.000
    O93     O    0.60999   0.45653   0.89806   1.000
    O94     O    0.89000   0.54345   0.10194   1.000
    O95     O    0.79896   0.48638   0.11546   1.000
    O96     O    0.78029   0.96480   0.39738   1.000
    O97     O    0.98165   0.82861   0.24329   1.000
    O98     O    0.21969   0.53518   0.10258   1.000
    O99     O    0.01831   0.67137   0.25671   1.000
    O100    O    0.28028   0.46480   0.39740   1.000
    O101    O    0.48165   0.32862   0.24328   1.000
    O102    O    0.51832   0.17137   0.75671   1.000
    O103    O    0.71971   0.03518   0.60256   1.000
    O104    O    0.78029   0.46480   0.89741   1.000
    O105    O    0.98166   0.32861   0.74329   1.000
    O106    O    0.51832   0.67137   0.75671   1.000
    O107    O    0.71971   0.53517   0.60255   1.000
    O108    O    0.28027   0.96480   0.39741   1.000
    O109    O    0.48165   0.82861   0.24329   1.000
    O110    O    0.51831   0.17138   0.25671   1.000
    O111    O    0.71971   0.03518   0.10258   1.000
    O112    O    0.71970   0.53518   0.10258   1.000
    O113    O    0.51831   0.67137   0.25671   1.000
    O114    O    0.48166   0.82861   0.74329   1.000
    O115    O    0.28028   0.96480   0.89741   1.000
    O116    O    0.21970   0.03518   0.60258   1.000
    O117    O    0.01832   0.17137   0.75671   1.000
    O118    O    0.98166   0.82861   0.74328   1.000
    O119    O    0.78029   0.96480   0.89741   1.000
    O120    O    0.21970   0.53517   0.60257   1.000
    O121    O    0.01832   0.67137   0.75672   1.000
    O122    O    0.98166   0.32862   0.24329   1.000
    O123    O    0.78029   0.46480   0.39738   1.000
    O124    O    0.48166   0.32861   0.74329   1.000
    O125    O    0.28028   0.46480   0.89741   1.000
    O126    O    0.01831   0.17138   0.25671   1.000
    O127    O    0.21969   0.03518   0.10258   1.000
loop_
    _geom_bond_atom_site_label_1
    _geom_bond_atom_site_label_2
    _geom_bond_distance
    _geom_bond_site_symmetry_2
    _ccdc_geom_bond_type
    N16    O17       2.85749      .   S
    Zr12   O17       4.07401      .   S
    N16    O18       2.62208      .   S
    Zr6    O18       3.63414      .   S
    N16    O19       2.62229  1_655   S
    Zr10   O19       3.63412      .   S
    N16    O20       2.85747  1_655   S
    Zr0    O20       4.07412  1_545   S
    N21    O22       3.17517      .   S
    Zr12   O22       4.23970  1_655   S
    N21    O23       3.17574      .   S
    Zr7    O23       4.24036      .   S
    N21    O24       2.77725      .   S
    Zr9    O24       3.77606      .   S
    N21    O25       2.77663      .   S
    Zr2    O25       3.77563      .   S
    N26    O27       2.62239      .   S
    Zr13   O27       3.63424      .   S
    N26    O28       2.62216      .   S
    Zr1    O28       3.63422      .   S
    N26    O29       2.85757      .   S
    Zr11   O29       4.07425  1_565   S
    N26    O30       2.85745      .   S
    Zr7    O30       4.07402      .   S
    N31    O32       3.17486      .   S
    Zr8    O32       4.23955      .   S
    N31    O33       3.17582      .   S
    Zr3    O33       4.24074  1_455   S
    N31    O34       2.77642      .   S
    Zr6    O34       3.77500      .   S
    N31    O35       2.77769      .   S
    Zr13   O35       3.77648      .   S
    N36    O37       2.85753      .   S
    Zr14   O37       4.07413  1_565   S
    N36    O38       2.62210      .   S
    Zr4    O38       3.63414      .   S
    N36    O39       2.85742  1_655   S
    Zr2    O39       4.07401      .   S
    N36    O40       2.62226  1_655   S
    Zr8    O40       3.63416      .   S
    N41    O42       2.62236      .   S
    Zr12   O42       3.63426      .   S
    N41    O43       2.85749      .   S
    Zr6    O43       4.07409      .   S
    N41    O44       2.85756      .   S
    Zr10   O44       4.07418  1_565   S
    N41    O45       2.62220      .   S
    Zr0    O45       3.63423      .   S
    N46    O47       2.85747      .   S
    Zr9    O47       4.07398      .   S
    N46    O48       2.62219      .   S
    Zr3    O48       3.63423      .   S
    N46    O49       2.85754      .   S
    Zr5    O49       4.07427  1_545   S
    N46    O50       2.62236      .   S
    Zr15   O50       3.63423      .   S
    N51    O52       2.85750      .   S
    Zr4    O52       4.07417  1_545   S
    N51    O53       2.85752      .   S
    Zr8    O53       4.07406      .   S
    N51    O54       2.62238      .   S
    Zr14   O54       3.63421      .   S
    N51    O55       2.62217      .   S
    Zr2    O55       3.63423      .   S
    N56    O57       2.85744      .   S
    Zr13   O57       4.07393      .   S
    N56    O58       2.62226  1_655   S
    Zr11   O58       3.63412      .   S
    N56    O59       2.85754  1_655   S
    Zr1    O59       4.07425  1_545   S
    N56    O60       2.62210      .   S
    Zr7    O60       3.63412      .   S
    N61    O62       3.17543  1_566   S
    Zr0    O62       4.23989  1_455   S
    N61    O63       2.77686  1_565   S
    Zr5    O63       3.77586      .   S
    N61    O64       2.77694  1_556   S
    Zr14   O64       3.77588      .   S
    N61    O65       3.17544      .   S
    Zr11   O65       4.24009      .   S
    N66    O67       3.17548  1_556   S
    Zr6    O67       4.24015      .   S
    N66    O68       2.77693  1_556   S
    Zr8    O68       3.77588      .   S
    N66    O69       3.17538      .   S
    Zr13   O69       4.23991  1_655   S
    N66    O70       2.77688      .   S
    Zr3    O70       3.77582      .   S
    N71    O72       2.77692  1_556   S
    Zr10   O72       3.77586      .   S
    N71    O73       2.77689  1_565   S
    Zr1    O73       3.77588      .   S
    N71    O74       3.17546  1_566   S
    Zr4    O74       4.24006      .   S
    N71    O75       3.17542      .   S
    Zr15   O75       4.23992  1_655   S
    N76    O77       2.77660  1_565   S
    Zr4    O77       3.77527      .   S
    N76    O78       3.17501      .   S
    Zr10   O78       4.23970      .   S
    N76    O79       3.17598  1_565   S
    Zr1    O79       4.24041  1_455   S
    N76    O80       2.77756      .   S
    Zr15   O80       3.77641      .   S
    N81    O82       2.62207      .   S
    Zr5    O82       3.63413      .   S
    N81    O83       2.62229  1_655   S
    Zr9    O83       3.63412      .   S
    N81    O84       2.85753      .   S
    Zr15   O84       4.07420  1_565   S
    N81    O85       2.85743  1_655   S
    Zr3    O85       4.07395      .   S
    N86    O87       2.77713  1_565   S
    Zr0    O87       3.77577      .   S
    N86    O88       2.77703      .   S
    Zr11   O88       3.77591      .   S
    N86    O89       3.17539      .   S
    Zr14   O89       4.23993  1_655   S
    N86    O90       3.17559  1_565   S
    Zr5    O90       4.24018      .   S
    N91    O92       2.77687      .   S
    Zr7    O92       3.77581      .   S
    N91    O93       3.17542      .   S
    Zr9    O93       4.24010      .   S
    N91    O94       3.17543  1_556   S
    Zr2    O94       4.23996  1_455   S
    N91    O95       2.77693  1_556   S
    Zr12   O95       3.77589      .   S
    Zr14   O96       3.40303      .   S
    N76    O96       2.54693      .   S
    Zr14   O97       2.30158      .   S
    N16    O97       1.62042      .   S
    Zr2    O98       3.40384      .   S
    N66    O98       2.54745  1_556   S
    Zr2    O99       2.30145      .   S
    N16    O99       1.62052  1_655   S
    Zr8    O100      3.40344      .   S
    N21    O100      2.54710      .   S
    Zr8    O101      2.30153      .   S
    N41    O101      1.62045      .   S
    Zr5    O102      2.30151      .   S
    N26    O102      1.62050      .   S
    Zr5    O103      3.40431      .   S
    N76    O103      2.54802  1_565   S
    Zr13   O104      3.40368      .   S
    N91    O104      2.54737      .   S
    Zr13   O105      2.30155      .   S
    N81    O105      1.62044      .   S
    Zr7    O106      2.30163      .   S
    N46    O106      1.62047      .   S
    Zr7    O107      3.40438      .   S
    N31    O107      2.54812      .   S
    Zr10   O108      3.40350      .   S
    N86    O108      2.54744      .   S
    Zr10   O109      2.30164      .   S
    N51    O109      1.62041      .   S
    Zr4    O110      2.30172      .   S
    N41    O110      1.62049      .   S
    Zr4    O111      3.40364      .   S
    N61    O111      2.54741  1_566   S
    Zr6    O112      3.40383      .   S
    N91    O112      2.54744  1_556   S
    Zr6    O113      2.30151      .   S
    N51    O113      1.62052      .   S
    Zr11   O114      2.30148      .   S
    N46    O114      1.62045      .   S
    Zr11   O115      3.40372      .   S
    N71    O115      2.54740      .   S
    Zr1    O116      3.40384      .   S
    N86    O116      2.54752  1_565   S
    Zr1    O117      2.30147      .   S
    N81    O117      1.62049  1_655   S
    Zr15   O118      2.30148      .   S
    N56    O118      1.62046      .   S
    Zr15   O119      3.40372      .   S
    N61    O119      2.54738      .   S
    Zr3    O120      3.40400      .   S
    N21    O120      2.54770      .   S
    Zr3    O121      2.30160      .   S
    N56    O121      1.62048  1_655   S
    Zr12   O122      2.30142      .   S
    N36    O122      1.62044      .   S
    Zr12   O123      3.40294      .   S
    N31    O123      2.54679      .   S
    Zr9    O124      2.30164      .   S
    N26    O124      1.62043      .   S
    Zr9    O125      3.40366      .   S
    N66    O125      2.54736      .   S
    Zr0    O126      2.30166      .   S
    N36    O126      1.62049  1_655   S
    Zr0    O127      3.40364      .   S
    N71    O127      2.54739  1_566   S
