# CIF file generated by openbabel 2.4.90, see http://openbabel.sf.net
data_I
_chemical_name_common ''
_cell_length_a 14.95
_cell_length_b 14.892
_cell_length_c 13.081
_cell_angle_alpha 90
_cell_angle_beta 90
_cell_angle_gamma 90
_space_group_name_H-M_alt 'P 1'
_space_group_name_Hall 'P 1'
loop_
    _symmetry_equiv_pos_as_xyz
    x,y,z
loop_
    _atom_site_label
    _atom_site_type_symbol
    _atom_site_fract_x
    _atom_site_fract_y
    _atom_site_fract_z
    _atom_site_occupancy
    C0      C    0.33761   0.99887   0.90100   1.000
    C1      C    0.33745   0.50125   0.90129   1.000
    C2      C    0.16276   0.99869   0.90135   1.000
    C3      C    0.16260   0.50134   0.90142   1.000
    C4      C    0.00130   0.33759   0.40108   1.000
    C5      C    0.00137   0.83771   0.40117   1.000
    C6      C    0.50132   0.33761   0.40107   1.000
    C7      C    0.49859   0.83758   0.40120   1.000
    C8      C    0.00140   0.16247   0.40106   1.000
    C9      C    0.00142   0.66252   0.40120   1.000
    C10     C    0.50142   0.16249   0.40107   1.000
    C11     C    0.49863   0.66240   0.40116   1.000
    C12     C    0.16272   0.99868   0.09844   1.000
    C13     C    0.16266   0.50132   0.09854   1.000
    C14     C    0.33758   0.99885   0.09859   1.000
    C15     C    0.33751   0.50122   0.09855   1.000
    C16     C    0.00127   0.33759   0.59890   1.000
    C17     C    0.00130   0.83771   0.59880   1.000
    C18     C    0.50138   0.33760   0.59893   1.000
    C19     C    0.49862   0.83757   0.59879   1.000
    C20     C    0.00132   0.16247   0.59892   1.000
    C21     C    0.00137   0.66253   0.59878   1.000
    C22     C    0.50148   0.16248   0.59889   1.000
    C23     C    0.49870   0.66239   0.59880   1.000
    N24     N    0.39417   0.99974   0.83957   1.000
    N25     N    0.39404   0.50042   0.83958   1.000
    N26     N    0.10603   0.99942   0.83983   1.000
    N27     N    0.10590   0.50060   0.83986   1.000
    N28     N    0.00065   0.39391   0.33879   1.000
    N29     N    0.00076   0.89413   0.33900   1.000
    N30     N    0.50072   0.39391   0.33870   1.000
    N31     N    0.49924   0.89407   0.33910   1.000
    N32     N    0.00081   0.10616   0.33875   1.000
    N33     N    0.00082   0.60603   0.33912   1.000
    N34     N    0.50085   0.10615   0.33880   1.000
    N35     N    0.49929   0.60597   0.33901   1.000
    N36     N    0.10598   0.99942   0.15995   1.000
    N37     N    0.10598   0.50058   0.16013   1.000
    N38     N    0.39411   0.99970   0.16035   1.000
    N39     N    0.39412   0.50038   0.16023   1.000
    N40     N    0.00059   0.39392   0.66110   1.000
    N41     N    0.00064   0.89414   0.66090   1.000
    N42     N    0.50081   0.39389   0.66126   1.000
    N43     N    0.49928   0.89405   0.66089   1.000
    N44     N    0.00067   0.10617   0.66124   1.000
    N45     N    0.00075   0.60603   0.66087   1.000
    N46     N    0.50096   0.10613   0.66115   1.000
    N47     N    0.49940   0.60595   0.66095   1.000
loop_
    _geom_bond_atom_site_label_1
    _geom_bond_atom_site_label_2
    _geom_bond_distance
    _geom_bond_site_symmetry_2
    _ccdc_geom_bond_type
    C12    N36       1.16925      .   S
    C13    N37       1.16928      .   S
    C15    N39       1.16927      .   S
    C14    N38       1.16924      .   S
    N30    C6        1.16988      .   S
    N32    C8        1.16941      .   S
    N28    C4        1.16945      .   S
    N34    C10       1.16944      .   S
    N29    C5        1.16934      .   S
    N35    C11       1.16926      .   S
    N31    C7        1.16938      .   S
    N33    C9        1.16936      .   S
    C21    N45       1.16939      .   S
    C19    N43       1.16934      .   S
    C17    N41       1.16875      .   S
    C23    N47       1.16932      .   S
    C22    N46       1.16940      .   S
    C16    N40       1.16864      .   S
    C20    N44       1.16949      .   S
    C18    N42       1.16941      .   S
    N24    C0        1.16653      .   S
    N25    C1        1.16931      .   S
    N26    C2        1.16929      .   S
    N27    C3        1.16931      .   S
