# CIF file generated by openbabel 2.4.90, see http://openbabel.sf.net
data_I
_chemical_name_common ''
_cell_length_a 14.95
_cell_length_b 14.892
_cell_length_c 13.081
_cell_angle_alpha 90
_cell_angle_beta 90
_cell_angle_gamma 90
_space_group_name_H-M_alt 'P 1'
_space_group_name_Hall 'P 1'
loop_
    _symmetry_equiv_pos_as_xyz
    x,y,z
loop_
    _atom_site_label
    _atom_site_type_symbol
    _atom_site_fract_x
    _atom_site_fract_y
    _atom_site_fract_z
    _atom_site_occupancy
    Zn0     Zn   0.00005   0.50007   0.75071   1.000
    Zn1     Zn   0.50011   0.99998   0.75070   1.000
    Zn2     Zn   0.50007   0.50003   0.75079   1.000
    Zn3     Zn   0.00012   0.00002   0.24919   1.000
    Zn4     Zn   0.00011   0.50007   0.24928   1.000
    Zn5     Zn   0.50006   0.99998   0.24927   1.000
    Zn6     Zn   0.50005   0.50003   0.24900   1.000
    Ni7     Ni   0.25025   0.99824   0.99992   1.000
    Ni8     Ni   0.25010   0.50175   0.99995   1.000
    Ni9     Ni   0.00178   0.25003   0.49999   1.000
    Ni10    Ni   0.00182   0.75015   0.49999   1.000
    Ni11    Ni   0.50179   0.25006   0.49999   1.000
    Ni12    Ni   0.49822   0.74997   0.49999   1.000
    Zn13    Zn   0.00008   0.00002   0.75078   1.000
