# CIF file generated by openbabel 2.4.90, see http://openbabel.sf.net
data_I
_chemical_name_common ''
_cell_length_a 14.95
_cell_length_b 14.892
_cell_length_c 13.081
_cell_angle_alpha 90
_cell_angle_beta 90
_cell_angle_gamma 90
_space_group_name_H-M_alt 'P 1'
_space_group_name_Hall 'P 1'
loop_
    _symmetry_equiv_pos_as_xyz
    x,y,z
loop_
    _atom_site_label
    _atom_site_type_symbol
    _atom_site_fract_x
    _atom_site_fract_y
    _atom_site_fract_z
    _atom_site_occupancy
    Zr0     Zr   0.00008   0.00002   0.75078   1.000
    Zr1     Zr   0.00005   0.50007   0.75071   1.000
    Zr2     Zr   0.50011   0.99998   0.75070   1.000
    Zr3     Zr   0.50007   0.50003   0.75079   1.000
    Zr4     Zr   0.00012   0.00002   0.24919   1.000
    Zr5     Zr   0.00011   0.50007   0.24928   1.000
    Zr6     Zr   0.50006   0.99998   0.24927   1.000
    Zr7     Zr   0.50005   0.50003   0.24900   1.000
    Zr8     Zr   0.25025   0.99824   0.99992   1.000
    Zr9     Zr   0.25010   0.50175   0.99995   1.000
    Zr10    Zr   0.00178   0.25003   0.49999   1.000
    Zr11    Zr   0.00182   0.75015   0.49999   1.000
    Zr12    Zr   0.50179   0.25006   0.49999   1.000
    Zr13    Zr   0.49822   0.74997   0.49999   1.000
    N14     N    0.50110   0.36574   0.63009   1.000
    O15     O    0.50134   0.32979   0.58978   1.000
    O16     O    0.50077   0.40635   0.66806   1.000
    N17     N    0.13440   0.99906   0.87059   1.000
    O18     O    0.17045   0.99876   0.91061   1.000
    O19     O    0.09372   0.99939   0.83295   1.000
    N20     N    0.50113   0.13432   0.36993   1.000
    O21     O    0.50079   0.09369   0.33199   1.000
    O22     O    0.50137   0.17030   0.41023   1.000
    N23     N    0.00111   0.13431   0.36990   1.000
    O24     O    0.00079   0.09370   0.33194   1.000
    O25     O    0.00135   0.17028   0.41021   1.000
    N26     N    0.50122   0.13430   0.63002   1.000
    O27     O    0.50143   0.17029   0.58973   1.000
    O28     O    0.50088   0.09368   0.66797   1.000
    N29     N    0.36581   0.50080   0.12939   1.000
    O30     O    0.40645   0.50050   0.16700   1.000
    O31     O    0.32981   0.50114   0.08932   1.000
    N32     N    0.36575   0.50083   0.87043   1.000
    O33     O    0.32976   0.50117   0.91053   1.000
    O34     O    0.40640   0.50053   0.83281   1.000
    N35     N    0.49895   0.86581   0.62984   1.000
    O36     O    0.49932   0.90641   0.66782   1.000
    O37     O    0.49868   0.82979   0.58962   1.000
    N38     N    0.49896   0.63419   0.37008   1.000
    O39     O    0.49870   0.67018   0.41033   1.000
    O40     O    0.49932   0.59359   0.33204   1.000
    N41     N    0.13425   0.50097   0.87064   1.000
    O42     O    0.17030   0.50126   0.91066   1.000
    O43     O    0.09361   0.50065   0.83296   1.000
    N44     N    0.36585   0.99927   0.12947   1.000
    O45     O    0.32988   0.99891   0.08936   1.000
    O46     O    0.40647   0.99956   0.16714   1.000
    N47     N    0.00093   0.36576   0.63000   1.000
    O48     O    0.00123   0.32978   0.58972   1.000
    O49     O    0.00063   0.40638   0.66795   1.000
    N50     N    0.36589   0.99931   0.87028   1.000
    O51     O    0.32991   0.99893   0.91037   1.000
    O52     O    0.40652   0.99958   0.83271   1.000
    N53     N    0.13435   0.99905   0.12920   1.000
    O54     O    0.17042   0.99875   0.08919   1.000
    O55     O    0.09370   0.99938   0.16688   1.000
    N56     N    0.49905   0.63417   0.62987   1.000
    O57     O    0.49876   0.67017   0.58963   1.000
    O58     O    0.49939   0.59358   0.66787   1.000
    N59     N    0.49891   0.86583   0.37015   1.000
    O60     O    0.49866   0.82980   0.41037   1.000
    O61     O    0.49928   0.90643   0.33217   1.000
    N62     N    0.50102   0.36576   0.36988   1.000
    O63     O    0.50070   0.40637   0.33187   1.000
    O64     O    0.50129   0.32980   0.41021   1.000
    N65     N    0.00112   0.63427   0.37016   1.000
    O66     O    0.00137   0.67031   0.41038   1.000
    O67     O    0.00079   0.59366   0.33218   1.000
    N68     N    0.00097   0.36575   0.36993   1.000
    O69     O    0.00126   0.32978   0.41023   1.000
    O70     O    0.00068   0.40637   0.33199   1.000
    N71     N    0.00106   0.86592   0.37009   1.000
    O72     O    0.00133   0.82993   0.41033   1.000
    O73     O    0.00075   0.90650   0.33209   1.000
    N74     N    0.00100   0.13432   0.63008   1.000
    O75     O    0.00127   0.17029   0.58977   1.000
    O76     O    0.00068   0.09371   0.66805   1.000
    N77     N    0.00106   0.63428   0.62982   1.000
    O78     O    0.00133   0.67031   0.58960   1.000
    O79     O    0.00073   0.59367   0.66781   1.000
    N80     N    0.13432   0.50095   0.12933   1.000
    O81     O    0.17035   0.50125   0.08929   1.000
    O82     O    0.09368   0.50064   0.16702   1.000
    N83     N    0.00097   0.86593   0.62985   1.000
    O84     O    0.00127   0.82993   0.58962   1.000
    O85     O    0.00067   0.90650   0.66784   1.000
loop_
    _geom_bond_atom_site_label_1
    _geom_bond_atom_site_label_2
    _geom_bond_distance
    _geom_bond_site_symmetry_2
    _ccdc_geom_bond_type
    N14    O15       0.75158      .   S
    Zr12   O15       1.67006      .   S
    N14    O16       0.78253      .   S
    Zr3    O16       1.76564      .   S
    N17    O18       0.75145      .   S
    Zr8    O18       1.66977      .   S
    N17    O19       0.78243      .   S
    Zr0    O19       1.76505  1_545   S
    N20    O21       0.78262      .   S
    Zr6    O21       1.76585  1_565   S
    N20    O22       0.75164      .   S
    Zr12   O22       1.67023      .   S
    N23    O24       0.78261      .   S
    Zr4    O24       1.76583      .   S
    N23    O25       0.75162      .   S
    Zr10   O25       1.67018      .   S
    N26    O27       0.75162      .   S
    Zr12   O27       1.67017      .   S
    N26    O28       0.78261      .   S
    Zr2    O28       1.76583  1_565   S
    N29    O30       0.78174      .   S
    Zr7    O30       1.76314      .   S
    N29    O31       0.75132      .   S
    Zr9    O31       1.66938  1_556   S
    N32    O33       0.75131      .   S
    Zr9    O33       1.66933      .   S
    N32    O34       0.78209      .   S
    Zr3    O34       1.76419      .   S
    N35    O36       0.78258      .   S
    Zr2    O36       1.76556      .   S
    N35    O37       0.75142      .   S
    Zr13   O37       1.66963      .   S
    N38    O39       0.75137      .   S
    Zr13   O39       1.66951      .   S
    N38    O40       0.78297      .   S
    Zr7    O40       1.76677      .   S
    N41    O42       0.75139      .   S
    Zr9    O42       1.66956      .   S
    N41    O43       0.78234      .   S
    Zr1    O43       1.76474      .   S
    N44    O45       0.75125      .   S
    Zr8    O45       1.66919  1_556   S
    N44    O46       0.78204      .   S
    Zr6    O46       1.76408      .   S
    N47    O48       0.75140      .   S
    Zr10   O48       1.66990      .   S
    N47    O49       0.78255      .   S
    Zr1    O49       1.76601      .   S
    N50    O51       0.75122      .   S
    Zr8    O51       1.67045      .   S
    N50    O52       0.78134      .   S
    Zr2    O52       1.76321      .   S
    N53    O54       0.75145      .   S
    Zr8    O54       1.66979  1_556   S
    N53    O55       0.78253      .   S
    Zr4    O55       1.76531  1_545   S
    N56    O57       0.75137      .   S
    Zr13   O57       1.66949      .   S
    N56    O58       0.78258      .   S
    Zr3    O58       1.76561      .   S
    N59    O60       0.75144      .   S
    Zr13   O60       1.66965      .   S
    N59    O61       0.78259      .   S
    Zr6    O61       1.76557      .   S
    N62    O63       0.78294      .   S
    Zr7    O63       1.76660      .   S
    N62    O64       0.75168      .   S
    Zr12   O64       1.67013      .   S
    N65    O66       0.75146      .   S
    Zr11   O66       1.66973      .   S
    N65    O67       0.78273      .   S
    Zr5    O67       1.76599      .   S
    N68    O69       0.75158      .   S
    Zr10   O69       1.67004      .   S
    N68    O70       0.78254      .   S
    Zr5    O70       1.76563      .   S
    N71    O72       0.75135      .   S
    Zr11   O72       1.66940      .   S
    N71    O73       0.78242      .   S
    Zr4    O73       1.76514  1_545   S
    N74    O75       0.75163      .   S
    Zr10   O75       1.67015      .   S
    N74    O76       0.78259      .   S
    Zr0    O76       1.76577      .   S
    N77    O78       0.75146      .   S
    Zr11   O78       1.66972      .   S
    N77    O79       0.78275      .   S
    Zr1    O79       1.76605      .   S
    N80    O81       0.75138      .   S
    Zr9    O81       1.66956  1_556   S
    N80    O82       0.78239      .   S
    Zr5    O82       1.76492      .   S
    N83    O84       0.75119      .   S
    Zr11   O84       1.66921      .   S
    N83    O85       0.78242      .   S
    Zr0    O85       1.76538  1_545   S
