# CIF file generated by openbabel 2.4.90, see http://openbabel.sf.net
data_I
_chemical_name_common ''
_cell_length_a 14.95
_cell_length_b 14.892
_cell_length_c 13.081
_cell_angle_alpha 90
_cell_angle_beta 90
_cell_angle_gamma 90
_space_group_name_H-M_alt 'P 1'
_space_group_name_Hall 'P 1'
loop_
    _symmetry_equiv_pos_as_xyz
    x,y,z
loop_
    _atom_site_label
    _atom_site_type_symbol
    _atom_site_fract_x
    _atom_site_fract_y
    _atom_site_fract_z
    _atom_site_occupancy
    Zr0     Zr   0.00008   0.00002   0.75078   1.000
    Zr1     Zr   0.00005   0.50007   0.75071   1.000
    Zr2     Zr   0.50011   0.99998   0.75070   1.000
    Zr3     Zr   0.50007   0.50003   0.75079   1.000
    Zr4     Zr   0.00012   0.00002   0.24919   1.000
    Zr5     Zr   0.00011   0.50007   0.24928   1.000
    Zr6     Zr   0.50006   0.99998   0.24927   1.000
    Zr7     Zr   0.50005   0.50003   0.24900   1.000
    Zr8     Zr   0.25025   0.99824   0.99992   1.000
    Zr9     Zr   0.25010   0.50175   0.99995   1.000
    Zr10    Zr   0.75015   0.99816   0.70000   1.000
    Zr11    Zr   0.75021   0.50179   0.30000   1.000
    Zr12    Zr   0.00178   0.25003   0.49999   1.000
    Zr13    Zr   0.00182   0.75015   0.49999   1.000
    Zr14    Zr   0.50179   0.25006   0.49999   1.000
    Zr15    Zr   0.49822   0.74997   0.49999   1.000
    N16     N    0.50110   0.36574   0.63009   1.000
    O17     O    0.50134   0.32979   0.58978   1.000
    O18     O    0.50077   0.40635   0.66806   1.000
    N19     N    0.86578   0.50108   0.12967   1.000
    O20     O    0.90642   0.50074   0.16731   1.000
    N21     N    0.63436   0.50111   0.87067   1.000
    O22     O    0.59371   0.50076   0.83300   1.000
    N23     N    0.13440   0.99906   0.87059   1.000
    O24     O    0.17045   0.99876   0.91061   1.000
    O25     O    0.09372   0.99939   0.83295   1.000
    N26     N    0.50113   0.13432   0.36993   1.000
    O27     O    0.50079   0.09369   0.33199   1.000
    O28     O    0.50137   0.17030   0.41023   1.000
    N29     N    0.00111   0.13431   0.36990   1.000
    O30     O    0.00079   0.09370   0.33194   1.000
    O31     O    0.00135   0.17028   0.41021   1.000
    N32     N    0.50122   0.13430   0.63002   1.000
    O33     O    0.50143   0.17029   0.58973   1.000
    O34     O    0.50088   0.09368   0.66797   1.000
    N35     N    0.36581   0.50080   0.12939   1.000
    O36     O    0.40645   0.50050   0.16700   1.000
    O37     O    0.32981   0.50114   0.08932   1.000
    N38     N    0.36575   0.50083   0.87043   1.000
    O39     O    0.32976   0.50117   0.91053   1.000
    O40     O    0.40640   0.50053   0.83281   1.000
    N41     N    0.49895   0.86581   0.62984   1.000
    O42     O    0.49932   0.90641   0.66782   1.000
    O43     O    0.49868   0.82979   0.58962   1.000
    N44     N    0.63437   0.99881   0.12949   1.000
    O45     O    0.59372   0.99917   0.16715   1.000
    N46     N    0.49896   0.63419   0.37008   1.000
    O47     O    0.49870   0.67018   0.41033   1.000
    O48     O    0.49932   0.59359   0.33204   1.000
    N49     N    0.13425   0.50097   0.87064   1.000
    O50     O    0.17030   0.50126   0.91066   1.000
    O51     O    0.09361   0.50065   0.83296   1.000
    N52     N    0.86578   0.99911   0.87048   1.000
    O53     O    0.90642   0.99942   0.83283   1.000
    N54     N    0.63444   0.50113   0.12951   1.000
    O55     O    0.59376   0.50078   0.16709   1.000
    N56     N    0.36585   0.99927   0.12947   1.000
    O57     O    0.32988   0.99891   0.08936   1.000
    O58     O    0.40647   0.99956   0.16714   1.000
    N59     N    0.00093   0.36576   0.63000   1.000
    O60     O    0.00123   0.32978   0.58972   1.000
    O61     O    0.00063   0.40638   0.66795   1.000
    N62     N    0.36589   0.99931   0.87028   1.000
    O63     O    0.32991   0.99893   0.91037   1.000
    O64     O    0.40652   0.99958   0.83271   1.000
    N65     N    0.13435   0.99905   0.12920   1.000
    O66     O    0.17042   0.99875   0.08919   1.000
    O67     O    0.09370   0.99938   0.16688   1.000
    N68     N    0.49905   0.63417   0.62987   1.000
    O69     O    0.49876   0.67017   0.58963   1.000
    O70     O    0.49939   0.59358   0.66787   1.000
    N71     N    0.86573   0.99911   0.12967   1.000
    O72     O    0.90639   0.99943   0.16728   1.000
    N73     N    0.49891   0.86583   0.37015   1.000
    O74     O    0.49866   0.82980   0.41037   1.000
    O75     O    0.49928   0.90643   0.33217   1.000
    N76     N    0.50102   0.36576   0.36988   1.000
    O77     O    0.50070   0.40637   0.33187   1.000
    O78     O    0.50129   0.32980   0.41021   1.000
    N79     N    0.00112   0.63427   0.37016   1.000
    O80     O    0.00137   0.67031   0.41038   1.000
    O81     O    0.00079   0.59366   0.33218   1.000
    N82     N    0.00097   0.36575   0.36993   1.000
    O83     O    0.00126   0.32978   0.41023   1.000
    O84     O    0.00068   0.40637   0.33199   1.000
    N85     N    0.00106   0.86592   0.37009   1.000
    O86     O    0.00133   0.82993   0.41033   1.000
    O87     O    0.00075   0.90650   0.33209   1.000
    N88     N    0.63442   0.99878   0.87054   1.000
    O89     O    0.59377   0.99915   0.83287   1.000
    N90     N    0.86573   0.50106   0.87035   1.000
    O91     O    0.90636   0.50073   0.83270   1.000
    N92     N    0.00100   0.13432   0.63008   1.000
    O93     O    0.00127   0.17029   0.58977   1.000
    O94     O    0.00068   0.09371   0.66805   1.000
    N95     N    0.00106   0.63428   0.62982   1.000
    O96     O    0.00133   0.67031   0.58960   1.000
    O97     O    0.00073   0.59367   0.66781   1.000
    N98     N    0.13432   0.50095   0.12933   1.000
    O99     O    0.17035   0.50125   0.08929   1.000
    O100    O    0.09368   0.50064   0.16702   1.000
    N101    N    0.00097   0.86593   0.62985   1.000
    O102    O    0.00127   0.82993   0.58962   1.000
    O103    O    0.00067   0.90650   0.66784   1.000
loop_
    _geom_bond_atom_site_label_1
    _geom_bond_atom_site_label_2
    _geom_bond_distance
    _geom_bond_site_symmetry_2
    _ccdc_geom_bond_type
    N16    O17       0.75158      .   S
    Zr14   O17       1.67006      .   S
    N16    O18       0.78253      .   S
    Zr3    O18       1.76564      .   S
    N19    O20       0.78196      .   S
    Zr5    O20       1.76392  1_455   S
    N21    O22       0.78248      .   S
    Zr3    O22       1.76522      .   S
    N23    O24       0.75145      .   S
    Zr8    O24       1.66977      .   S
    N23    O25       0.78243      .   S
    Zr0    O25       1.76505  1_545   S
    N26    O27       0.78262      .   S
    Zr6    O27       1.76585  1_565   S
    N26    O28       0.75164      .   S
    Zr14   O28       1.67023      .   S
    N29    O30       0.78261      .   S
    Zr4    O30       1.76583      .   S
    N29    O31       0.75162      .   S
    Zr12   O31       1.67018      .   S
    N32    O33       0.75162      .   S
    Zr14   O33       1.67017      .   S
    N32    O34       0.78261      .   S
    Zr2    O34       1.76583  1_565   S
    N35    O36       0.78174      .   S
    Zr7    O36       1.76314      .   S
    N35    O37       0.75132      .   S
    Zr9    O37       1.66938  1_556   S
    N38    O39       0.75131      .   S
    Zr9    O39       1.66933      .   S
    N38    O40       0.78209      .   S
    Zr3    O40       1.76419      .   S
    N41    O42       0.78258      .   S
    Zr2    O42       1.76556      .   S
    N41    O43       0.75142      .   S
    Zr15   O43       1.66963      .   S
    N44    O45       0.78234      .   S
    Zr6    O45       1.76486      .   S
    N46    O47       0.75137      .   S
    Zr15   O47       1.66951      .   S
    N46    O48       0.78297      .   S
    Zr7    O48       1.76677      .   S
    N49    O50       0.75139      .   S
    Zr9    O50       1.66956      .   S
    N49    O51       0.78234      .   S
    Zr1    O51       1.76474      .   S
    N52    O53       0.78211      .   S
    Zr0    O53       1.76430  1_445   S
    N54    O55       0.78197      .   S
    Zr7    O55       1.76380      .   S
    N56    O57       0.75125      .   S
    Zr8    O57       1.66919  1_556   S
    N56    O58       0.78204      .   S
    Zr6    O58       1.76408      .   S
    N59    O60       0.75140      .   S
    Zr12   O60       1.66990      .   S
    N59    O61       0.78255      .   S
    Zr1    O61       1.76601      .   S
    N62    O63       0.75122      .   S
    Zr8    O63       1.67045      .   S
    N62    O64       0.78134      .   S
    Zr2    O64       1.76321      .   S
    N65    O66       0.75145      .   S
    Zr8    O66       1.66979  1_556   S
    N65    O67       0.78253      .   S
    Zr4    O67       1.76531  1_545   S
    N68    O69       0.75137      .   S
    Zr15   O69       1.66949      .   S
    N68    O70       0.78258      .   S
    Zr3    O70       1.76561      .   S
    N71    O72       0.78199      .   S
    Zr4    O72       1.76403  1_445   S
    N73    O74       0.75144      .   S
    Zr15   O74       1.66965      .   S
    N73    O75       0.78259      .   S
    Zr6    O75       1.76557      .   S
    N76    O77       0.78294      .   S
    Zr7    O77       1.76660      .   S
    N76    O78       0.75168      .   S
    Zr14   O78       1.67013      .   S
    N79    O80       0.75146      .   S
    Zr13   O80       1.66973      .   S
    N79    O81       0.78273      .   S
    Zr5    O81       1.76599      .   S
    N82    O83       0.75158      .   S
    Zr12   O83       1.67004      .   S
    N82    O84       0.78254      .   S
    Zr5    O84       1.76563      .   S
    N85    O86       0.75135      .   S
    Zr13   O86       1.66940      .   S
    N85    O87       0.78242      .   S
    Zr4    O87       1.76514  1_545   S
    N88    O89       0.78242      .   S
    Zr2    O89       1.76514      .   S
    N90    O91       0.78205      .   S
    Zr1    O91       1.76414  1_455   S
    N92    O93       0.75163      .   S
    Zr12   O93       1.67015      .   S
    N92    O94       0.78259      .   S
    Zr0    O94       1.76577      .   S
    N95    O96       0.75146      .   S
    Zr13   O96       1.66972      .   S
    N95    O97       0.78275      .   S
    Zr1    O97       1.76605      .   S
    N98    O99       0.75138      .   S
    Zr9    O99       1.66956  1_556   S
    N98    O100      0.78239      .   S
    Zr5    O100      1.76492      .   S
    N101   O102      0.75119      .   S
    Zr13   O102      1.66921      .   S
    N101   O103      0.78242      .   S
    Zr0    O103      1.76538  1_545   S
