# CIF file generated by openbabel 2.4.90, see http://openbabel.sf.net
data_I
_chemical_name_common ''
_cell_length_a 18.425
_cell_length_b 18.43
_cell_length_c 18.431
_cell_angle_alpha 60.151
_cell_angle_beta 60.163
_cell_angle_gamma 60.161
_space_group_name_H-M_alt 'P 1'
_space_group_name_Hall 'P 1'
loop_
    _symmetry_equiv_pos_as_xyz
    x,y,z
loop_
    _atom_site_label
    _atom_site_type_symbol
    _atom_site_fract_x
    _atom_site_fract_y
    _atom_site_fract_z
    _atom_site_occupancy
    Zr0     Zr   0.29335   0.29329   0.11953   1.000
    Zr1     Zr   0.29363   0.29367   0.29364   1.000
    Zr2     Zr   0.11953   0.29335   0.29332   1.000
    Zr3     Zr   0.29336   0.11955   0.29326   1.000
    Zr4     Zr   0.70662   0.70670   0.88040   1.000
    Zr5     Zr   0.70633   0.70632   0.70635   1.000
    Zr6     Zr   0.70661   0.88044   0.70673   1.000
    Zr7     Zr   0.88044   0.70664   0.70666   1.000
    N8      N    0.99998   0.49999   0.99999   1.000
    O9      O    0.12201   0.41501   0.04770   1.000
    O10     O    0.04771   0.41497   0.12199   1.000
    O11     O    0.95226   0.58501   0.87799   1.000
    O12     O    0.87796   0.58498   0.95227   1.000
    N13     N    0.49998   0.99999   0.99993   1.000
    O14     O    0.58497   0.87799   0.95225   1.000
    O15     O    0.41499   0.12200   0.04767   1.000
    O16     O    0.58497   0.95227   0.87798   1.000
    O17     O    0.41500   0.04772   0.12194   1.000
    N18     N    0.49998   0.99999   0.49937   1.000
    O19     O    0.58477   0.87785   0.58454   1.000
    O20     O    0.41501   0.04775   0.41471   1.000
    O21     O    0.58496   0.95223   0.58465   1.000
    O22     O    0.41520   0.12214   0.41482   1.000
    N23     N    0.49998   0.49999   0.99999   1.000
    O24     O    0.41501   0.41503   0.04774   1.000
    O25     O    0.58495   0.58496   0.95223   1.000
    O26     O    0.41516   0.41518   0.12212   1.000
    O27     O    0.58481   0.58480   0.87786   1.000
    N28     N    0.99998   0.49999   0.49994   1.000
    O29     O    0.95224   0.58494   0.58493   1.000
    O30     O    0.87785   0.58481   0.58478   1.000
    O31     O    0.12212   0.41517   0.41515   1.000
    O32     O    0.04773   0.41504   0.41480   1.000
    N33     N    0.25001   0.25001   0.24990   1.000
    O34     O    0.26085   0.26083   0.21731   1.000
    O35     O    0.26085   0.21739   0.26074   1.000
    O36     O    0.26092   0.26092   0.26084   1.000
    O37     O    0.21739   0.26084   0.26076   1.000
    N38     N    0.99998   0.99999   0.49998   1.000
    O39     O    0.04771   0.12201   0.41496   1.000
    O40     O    0.87795   0.95228   0.58500   1.000
    O41     O    0.12202   0.04771   0.41496   1.000
    O42     O    0.95226   0.87798   0.58501   1.000
    N43     N    0.74996   0.74998   0.75000   1.000
    O44     O    0.73905   0.73906   0.73909   1.000
    O45     O    0.78258   0.73914   0.73917   1.000
    O46     O    0.73912   0.78259   0.73918   1.000
    O47     O    0.73912   0.73916   0.78260   1.000
loop_
    _geom_bond_atom_site_label_1
    _geom_bond_atom_site_label_2
    _geom_bond_distance
    _geom_bond_site_symmetry_2
    _ccdc_geom_bond_type
    N8     O9        2.31808  1_656   S
    Zr0    O9        3.30239      .   S
    N8     O10       2.31815  1_656   S
    Zr2    O10       3.30256      .   S
    N8     O11       2.31821      .   S
    Zr7    O11       3.30262      .   S
    N8     O12       2.31822      .   S
    Zr4    O12       3.30283      .   S
    N13    O14       2.31829      .   S
    Zr4    O14       3.30302      .   S
    N13    O15       2.31875  1_566   S
    Zr0    O15       3.30318      .   S
    N13    O16       2.31792      .   S
    Zr6    O16       3.30240      .   S
    N13    O17       2.31886  1_566   S
    Zr3    O17       3.30333      .   S
    N18    O19       2.32277      .   S
    Zr5    O19       3.30813      .   S
    N18    O20       2.31360  1_565   S
    Zr3    O20       3.29828      .   S
    N18    O21       2.32308      .   S
    Zr6    O21       3.30776      .   S
    N18    O22       2.31671  1_565   S
    Zr1    O22       3.30189      .   S
    N23    O24       2.31821  1_556   S
    Zr0    O24       3.30281      .   S
    N23    O25       2.31814      .   S
    Zr4    O25       3.30261      .   S
    N23    O26       2.31960  1_556   S
    Zr1    O26       3.30482      .   S
    N23    O27       2.31959      .   S
    Zr5    O27       3.30479      .   S
    N28    O29       2.31923      .   S
    Zr7    O29       3.30403      .   S
    N28    O30       2.32034      .   S
    Zr5    O30       3.30578      .   S
    N28    O31       2.31979  1_655   S
    Zr1    O31       3.30521      .   S
    N28    O32       2.32142  1_655   S
    Zr2    O32       3.30029      .   S
    N33    O34       0.49144      .   S
    Zr0    O34       1.47433      .   S
    N33    O35       0.49175      .   S
    Zr3    O35       1.47524      .   S
    N33    O36       0.49228      .   S
    Zr1    O36       1.47685      .   S
    N33    O37       0.49176      .   S
    Zr2    O37       1.47529      .   S
    N38    O39       2.31828  1_665   S
    Zr2    O39       3.30274      .   S
    N38    O40       2.31827      .   S
    Zr6    O40       3.30265      .   S
    N38    O41       2.31828  1_665   S
    Zr3    O41       3.30266      .   S
    N38    O42       2.31828      .   S
    Zr7    O42       3.30273      .   S
    N43    O44       0.49195      .   S
    Zr5    O44       1.47585      .   S
    N43    O45       0.49176      .   S
    Zr7    O45       1.47529      .   S
    N43    O46       0.49175      .   S
    Zr6    O46       1.47525      .   S
    N43    O47       0.49156      .   S
    Zr4    O47       1.47467      .   S
