# CIF file generated by openbabel 2.4.90, see http://openbabel.sf.net
data_I
_chemical_name_common ''
_cell_length_a 14.712
_cell_length_b 18.13
_cell_length_c 25.12
_cell_angle_alpha 89.962
_cell_angle_beta 90.097
_cell_angle_gamma 90.047
_space_group_name_H-M_alt 'P 1'
_space_group_name_Hall 'P 1'
loop_
    _symmetry_equiv_pos_as_xyz
    x,y,z
loop_
    _atom_site_label
    _atom_site_type_symbol
    _atom_site_fract_x
    _atom_site_fract_y
    _atom_site_fract_z
    _atom_site_occupancy
    Zn0     Zn   0.50416   0.25605   0.85161   1.000
    Zn1     Zn   0.46837   0.44736   0.85178   1.000
    Zn2     Zn   0.03534   0.43465   0.35190   1.000
    Zn3     Zn   0.00411   0.24393   0.35161   1.000
    Zn4     Zn   0.96810   0.05266   0.35180   1.000
    Zn5     Zn   0.96466   0.56531   0.64811   1.000
    Zn6     Zn   0.99589   0.75603   0.64839   1.000
    Zn7     Zn   0.03190   0.94730   0.64820   1.000
    Zn8     Zn   0.46475   0.93462   0.14808   1.000
    Zn9     Zn   0.49583   0.74392   0.14840   1.000
    Zn10    Zn   0.53163   0.55261   0.14822   1.000
    Zn11    Zn   0.53525   0.06535   0.85192   1.000
