# CIF file generated by openbabel 2.4.90, see http://openbabel.sf.net
data_I
_chemical_name_common ''
_cell_length_a 14.712
_cell_length_b 18.13
_cell_length_c 25.12
_cell_angle_alpha 89.962
_cell_angle_beta 90.097
_cell_angle_gamma 90.047
_space_group_name_H-M_alt 'P 1'
_space_group_name_Hall 'P 1'
loop_
    _symmetry_equiv_pos_as_xyz
    x,y,z
loop_
    _atom_site_label
    _atom_site_type_symbol
    _atom_site_fract_x
    _atom_site_fract_y
    _atom_site_fract_z
    _atom_site_occupancy
    Zr0     Zr   0.53525   0.06535   0.85192   1.000
    Zr1     Zr   0.50416   0.25605   0.85161   1.000
    Zr2     Zr   0.46837   0.44736   0.85178   1.000
    Zr3     Zr   0.03534   0.43465   0.35190   1.000
    Zr4     Zr   0.00411   0.24393   0.35161   1.000
    Zr5     Zr   0.96810   0.05266   0.35180   1.000
    Zr6     Zr   0.96466   0.56531   0.64811   1.000
    Zr7     Zr   0.99589   0.75603   0.64839   1.000
    Zr8     Zr   0.03190   0.94730   0.64820   1.000
    Zr9     Zr   0.46475   0.93462   0.14808   1.000
    Zr10    Zr   0.49583   0.74392   0.14840   1.000
    Zr11    Zr   0.53163   0.55261   0.14822   1.000
    N12     N    0.50044   0.24327   0.14999   1.000
    O13     O    0.51495   0.36907   0.14931   1.000
    O14     O    0.48449   0.11768   0.14938   1.000
    N15     N    0.74765   0.36846   0.60098   1.000
    O16     O    0.62242   0.40415   0.70901   1.000
    O17     O    0.87682   0.39826   0.49387   1.000
    O18     O    0.64832   0.33006   0.71608   1.000
    O19     O    0.85337   0.32337   0.48738   1.000
    N20     N    0.74670   0.86248   0.39847   1.000
    O21     O    0.87064   0.90228   0.50717   1.000
    O22     O    0.86952   0.82402   0.50541   1.000
    O23     O    0.62621   0.89465   0.28836   1.000
    O24     O    0.62323   0.81731   0.29172   1.000
    N25     N    0.25330   0.13748   0.60149   1.000
    O26     O    0.37378   0.10531   0.71162   1.000
    O27     O    0.37677   0.18266   0.70826   1.000
    O28     O    0.13048   0.17594   0.49457   1.000
    O29     O    0.12935   0.09769   0.49281   1.000
    N30     N    0.24661   0.63743   0.89847   1.000
    O31     O    0.12614   0.60527   0.78837   1.000
    O32     O    0.12227   0.68260   0.79172   1.000
    O33     O    0.36945   0.67592   0.00541   1.000
    O34     O    0.37052   0.59764   0.00717   1.000
    N35     N    0.00090   0.25667   0.84468   1.000
    O36     O    0.20210   0.34511   0.84885   1.000
    O37     O    0.78161   0.24233   0.85520   1.000
    O38     O    0.80021   0.16787   0.84586   1.000
    O39     O    0.22291   0.26957   0.84133   1.000
    N40     N    0.50073   0.24330   0.34471   1.000
    O41     O    0.30017   0.33212   0.34586   1.000
    O42     O    0.28151   0.25765   0.35521   1.000
    O43     O    0.72274   0.23041   0.34136   1.000
    O44     O    0.70185   0.15486   0.34887   1.000
    N45     N    0.49926   0.75666   0.65528   1.000
    O46     O    0.69983   0.66784   0.65414   1.000
    O47     O    0.29815   0.84511   0.65113   1.000
    O48     O    0.71849   0.74231   0.64478   1.000
    O49     O    0.27726   0.76955   0.65864   1.000
    N50     N    0.00040   0.25667   0.65002   1.000
    O51     O    0.98441   0.38225   0.64942   1.000
    O52     O    0.01506   0.13086   0.64932   1.000
    N53     N    0.99954   0.74330   0.34997   1.000
    O54     O    0.01557   0.61771   0.35058   1.000
    O55     O    0.98491   0.86910   0.35068   1.000
    N56     N    0.99910   0.74330   0.15532   1.000
    O57     O    0.77709   0.73040   0.15867   1.000
    O58     O    0.19979   0.83210   0.15414   1.000
    O59     O    0.79790   0.65486   0.15115   1.000
    O60     O    0.21839   0.75764   0.14481   1.000
    N61     N    0.25235   0.63151   0.39896   1.000
    O62     O    0.37757   0.59582   0.29096   1.000
    O63     O    0.14662   0.67660   0.51259   1.000
    O64     O    0.12318   0.60170   0.50610   1.000
    O65     O    0.35168   0.66990   0.28389   1.000
    N66     N    0.75325   0.36253   0.10152   1.000
    O67     O    0.63048   0.32404   0.99459   1.000
    O68     O    0.62941   0.40232   0.99282   1.000
    O69     O    0.87673   0.31736   0.20828   1.000
    O70     O    0.87379   0.39470   0.21163   1.000
    N71     N    0.49957   0.75670   0.85000   1.000
    O72     O    0.51551   0.88229   0.85061   1.000
    O73     O    0.48505   0.63089   0.85068   1.000
    N74     N    0.24764   0.13161   0.10100   1.000
    O75     O    0.12222   0.09598   0.20902   1.000
    O76     O    0.14829   0.17002   0.21608   1.000
    O77     O    0.35339   0.17664   0.98738   1.000
    O78     O    0.37678   0.10176   0.99389   1.000
    N79     N    0.75236   0.86835   0.89898   1.000
    O80     O    0.87779   0.90398   0.79097   1.000
    O81     O    0.62322   0.89821   0.00610   1.000
    O82     O    0.64661   0.82332   0.01261   1.000
    O83     O    0.85171   0.82994   0.78384   1.000
loop_
    _geom_bond_atom_site_label_1
    _geom_bond_atom_site_label_2
    _geom_bond_distance
    _geom_bond_site_symmetry_2
    _ccdc_geom_bond_type
    N12    O13       2.29071      .   S
    Zr11   O13       3.33636      .   S
    N12    O14       2.28891      .   S
    Zr9    O14       3.33141  1_565   S
    N15    O16       3.34635      .   S
    Zr2    O16       4.31814      .   S
    N15    O17       3.34020      .   S
    Zr3    O17       4.31452  1_455   S
    N15    O18       3.31506      .   S
    Zr1    O18       4.23109      .   S
    N15    O19       3.35442      .   S
    Zr4    O19       4.31982  1_455   S
    N20    O21       3.35941      .   S
    Zr8    O21       4.33785  1_455   S
    N20    O22       3.30917      .   S
    Zr7    O22       4.22513      .   S
    N20    O23       3.33406      .   S
    Zr9    O23       4.30760      .   S
    N20    O24       3.33833      .   S
    Zr10   O24       4.26900      .   S
    N25    O26       3.33450      .   S
    Zr0    O26       4.30804      .   S
    N25    O27       3.33887      .   S
    Zr1    O27       4.26957      .   S
    N25    O28       3.30872      .   S
    Zr4    O28       4.22467      .   S
    N25    O29       3.35897      .   S
    Zr5    O29       4.33740  1_655   S
    N30    O31       3.33392      .   S
    Zr6    O31       4.30747  1_655   S
    N30    O32       3.34532      .   S
    Zr7    O32       4.26234  1_655   S
    N30    O33       3.30951  1_556   S
    Zr10   O33       4.22591      .   S
    N30    O34       3.35887  1_556   S
    Zr11   O34       4.33699      .   S
    N35    O36       3.36674      .   S
    Zr2    O36       4.33310      .   S
    N35    O37       3.24762  1_455   S
    Zr1    O37       4.09039      .   S
    N35    O38       3.36190  1_455   S
    Zr0    O38       4.32014      .   S
    N35    O39       3.27556      .   S
    Zr1    O39       4.15292      .   S
    N40    O41       3.36286      .   S
    Zr3    O41       4.32128      .   S
    N40    O42       3.24713      .   S
    Zr4    O42       4.08925      .   S
    N40    O43       3.27586      .   S
    Zr4    O43       4.15422  1_455   S
    N40    O44       3.36795      .   S
    Zr5    O44       4.33505      .   S
    N45    O46       3.36285      .   S
    Zr6    O46       4.32125      .   S
    N45    O47       3.36794      .   S
    Zr8    O47       4.33506      .   S
    N45    O48       3.24714      .   S
    Zr7    O48       4.08926      .   S
    N45    O49       3.27587      .   S
    Zr7    O49       4.15421  1_655   S
    N50    O51       2.28921  1_455   S
    Zr6    O51       3.33196      .   S
    N50    O52       2.29128      .   S
    Zr8    O52       3.33749  1_565   S
    N53    O54       2.28924  1_655   S
    Zr3    O54       3.33196      .   S
    N53    O55       2.29125      .   S
    Zr5    O55       3.33749  1_545   S
    N56    O57       3.27556      .   S
    Zr10   O57       4.15290      .   S
    N56    O58       3.36191  1_655   S
    Zr9    O58       4.32014      .   S
    N56    O59       3.36673      .   S
    Zr11   O59       4.33310      .   S
    N56    O60       3.24761  1_655   S
    Zr10   O60       4.09040      .   S
    N61    O62       3.34574      .   S
    Zr11   O62       4.31753      .   S
    N61    O63       3.35505      .   S
    Zr7    O63       4.32039  1_655   S
    N61    O64       3.34084      .   S
    Zr6    O64       4.31528  1_655   S
    N61    O65       3.31432      .   S
    Zr10   O65       4.23040      .   S
    N66    O67       3.30883  1_554   S
    Zr1    O67       4.22524      .   S
    N66    O68       3.35825  1_554   S
    Zr2    O68       4.33637      .   S
    N66    O69       3.33854      .   S
    Zr4    O69       4.26880  1_455   S
    N66    O70       3.33458      .   S
    Zr3    O70       4.30825  1_455   S
    N71    O72       2.28891      .   S
    Zr0    O72       3.33140  1_545   S
    N71    O73       2.29071      .   S
    Zr2    O73       3.33636      .   S
    N74    O75       3.34627      .   S
    Zr5    O75       4.31775  1_655   S
    N74    O76       3.31616      .   S
    Zr4    O76       4.23333      .   S
    N74    O77       3.35303  1_554   S
    Zr1    O77       4.31723      .   S
    N74    O78       3.34102  1_554   S
    Zr0    O78       4.31547      .   S
    N79    O80       3.34620      .   S
    Zr8    O80       4.31737  1_455   S
    N79    O81       3.34125  1_556   S
    Zr9    O81       4.31570      .   S
    N79    O82       3.35331  1_556   S
    Zr10   O82       4.31759      .   S
    N79    O83       3.31751      .   S
    Zr7    O83       4.23163      .   S
