# CIF file generated by openbabel 2.4.90, see http://openbabel.sf.net
data_I
_chemical_name_common ''
_cell_length_a 18.488
_cell_length_b 18.475
_cell_length_c 18.451
_cell_angle_alpha 59.888
_cell_angle_beta 59.923
_cell_angle_gamma 59.966
_space_group_name_H-M_alt 'P 1'
_space_group_name_Hall 'P 1'
loop_
    _symmetry_equiv_pos_as_xyz
    x,y,z
loop_
    _atom_site_label
    _atom_site_type_symbol
    _atom_site_fract_x
    _atom_site_fract_y
    _atom_site_fract_z
    _atom_site_occupancy
    Zn0     Zn   0.19857   0.02437   0.19873   1.000
    Zn1     Zn   0.61148   0.61131   0.78564   1.000
    Zn2     Zn   0.19873   0.19871   0.02399   1.000
    Zn3     Zn   0.78528   0.61155   0.61141   1.000
    Zn4     Zn   0.02470   0.19853   0.19873   1.000
    Zn5     Zn   0.61174   0.61140   0.61110   1.000
    Zn6     Zn   0.19853   0.19852   0.19860   1.000
    Zn7     Zn   0.21474   0.38841   0.38856   1.000
    Zn8     Zn   0.97532   0.80143   0.80123   1.000
    Zn9     Zn   0.38854   0.38865   0.21430   1.000
    Zn10    Zn   0.80129   0.80125   0.97598   1.000
    Zn11    Zn   0.38836   0.21464   0.38866   1.000
    Zn12    Zn   0.80145   0.97559   0.80124   1.000
    Zn13    Zn   0.38828   0.38856   0.38879   1.000
    Zn14    Zn   0.80149   0.80144   0.80135   1.000
    Zn15    Zn   0.61166   0.78533   0.61131   1.000
    C16     C    0.29389   0.01611   0.29430   1.000
    C17     C    0.51624   0.79450   0.51567   1.000
    C18     C    0.29405   0.29416   0.01587   1.000
    C19     C    0.51613   0.51582   0.79455   1.000
    C20     C    0.01639   0.29390   0.29426   1.000
    C21     C    0.79472   0.51601   0.51575   1.000
    O22     O    0.28907   0.46173   0.46222   1.000
    O23     O    0.89993   0.72800   0.72787   1.000
    O24     O    0.02320   0.72825   0.72761   1.000
    O25     O    0.46198   0.46209   0.16562   1.000
    C26     C    0.01606   0.01598   0.29582   1.000
    C27     C    0.79416   0.79417   0.51702   1.000
    C28     C    0.29567   0.01609   0.01581   1.000
    C29     C    0.51727   0.79393   0.79426   1.000
    C30     C    0.01619   0.29560   0.01587   1.000
    C31     C    0.79395   0.51720   0.79437   1.000
    C32     C    0.98363   0.70605   0.70571   1.000
    C33     C    0.20530   0.48395   0.48422   1.000
    C34     C    0.70598   0.70580   0.98410   1.000
    C35     C    0.48390   0.48414   0.20541   1.000
    C36     C    0.70613   0.98386   0.70567   1.000
    C37     C    0.48378   0.20546   0.48429   1.000
    C38     C    0.98397   0.98398   0.70415   1.000
    C39     C    0.20586   0.20579   0.48295   1.000
    C40     C    0.98383   0.70436   0.98410   1.000
    C41     C    0.20607   0.48275   0.20559   1.000
    C42     C    0.70436   0.98388   0.98416   1.000
    C43     C    0.48276   0.20603   0.20571   1.000
    O44     O    0.71030   0.83359   0.53891   1.000
    O45     O    0.97654   0.09981   0.27337   1.000
    O46     O    0.53905   0.70998   0.83380   1.000
    O47     O    0.27297   0.97645   0.09981   1.000
    O48     O    0.83333   0.53918   0.71027   1.000
    O49     O    0.09993   0.27296   0.97601   1.000
    O50     O    0.83353   0.71023   0.53886   1.000
    O51     O    0.09980   0.97632   0.27320   1.000
    O52     O    0.71008   0.53902   0.83395   1.000
    O53     O    0.97670   0.27313   0.09987   1.000
    O54     O    0.53932   0.83338   0.71010   1.000
    O55     O    0.27324   0.09993   0.97596   1.000
    O56     O    0.53821   0.83411   0.53786   1.000
    O57     O    0.53865   0.71064   0.53761   1.000
    O58     O    0.27187   0.09989   0.27218   1.000
    O59     O    0.27180   0.97644   0.27236   1.000
    O60     O    0.53804   0.53787   0.83434   1.000
    O61     O    0.53853   0.53794   0.71050   1.000
    O62     O    0.27196   0.27199   0.09981   1.000
    O63     O    0.27204   0.27228   0.97606   1.000
    O64     O    0.83420   0.53809   0.53795   1.000
    O65     O    0.71096   0.53824   0.53774   1.000
    O66     O    0.10009   0.27197   0.27209   1.000
    O67     O    0.97683   0.27171   0.27230   1.000
    O68     O    0.65494   0.65483   0.65490   1.000
    O69     O    0.15521   0.15504   0.15491   1.000
    O70     O    0.16649   0.28973   0.46111   1.000
    O71     O    0.90022   0.02364   0.72670   1.000
    O72     O    0.28994   0.46094   0.16602   1.000
    O73     O    0.02332   0.72683   0.90000   1.000
    O74     O    0.46070   0.16658   0.28982   1.000
    O75     O    0.72679   0.90003   0.02400   1.000
    O76     O    0.28973   0.16637   0.46106   1.000
    O77     O    0.02349   0.90014   0.72659   1.000
    O78     O    0.46097   0.28999   0.16610   1.000
    O79     O    0.72705   0.02351   0.90015   1.000
    O80     O    0.16669   0.46078   0.28970   1.000
    O81     O    0.90010   0.72699   0.02390   1.000
    O82     O    0.16582   0.46187   0.46202   1.000
    O83     O    0.46151   0.46200   0.28944   1.000
    O84     O    0.72806   0.72799   0.90015   1.000
    O85     O    0.72798   0.72769   0.02391   1.000
    O86     O    0.46182   0.16585   0.46210   1.000
    O87     O    0.46137   0.28932   0.46236   1.000
    O88     O    0.72815   0.90007   0.72779   1.000
    O89     O    0.72823   0.02352   0.72760   1.000
    O90     O    0.34508   0.34513   0.34506   1.000
    O91     O    0.84482   0.84492   0.84506   1.000
loop_
    _geom_bond_atom_site_label_1
    _geom_bond_atom_site_label_2
    _geom_bond_distance
    _geom_bond_site_symmetry_2
    _ccdc_geom_bond_type
    C28    O47       1.27725  1_545   S
    C28    O55       1.27744  1_554   S
    C18    O62       1.27678      .   S
    C18    O63       1.27706  1_554   S
    C30    O53       1.27716  1_455   S
    C30    O49       1.27740  1_554   S
    O81    Zn10      1.97336  1_554   S
    O81    C40       1.27725  1_554   S
    O85    Zn10      1.97547  1_554   S
    O85    C34       1.27702  1_554   S
    Zn2    O55       1.97387  1_554   S
    Zn2    O49       1.97393  1_554   S
    Zn2    O63       1.97547  1_554   S
    O75    Zn10      1.97375  1_554   S
    O75    C42       1.27743  1_554   S
    O47    Zn0       1.97307  1_565   S
    O62    Zn6       1.97215      .   S
    O53    Zn4       1.97230  1_655   S
    O69    Zn6       1.96912      .   S
    O69    Zn4       1.96896      .   S
    O25    C35       1.27781      .   S
    O25    Zn9       1.97226      .   S
    O72    C41       1.27851      .   S
    O72    Zn9       1.97413      .   S
    O78    C43       1.27848      .   S
    O78    Zn9       1.97393      .   S
    Zn6    O66       1.97299      .   S
    Zn6    O58       1.97273      .   S
    Zn0    O59       1.97463  1_545   S
    Zn0    O51       1.97342  1_545   S
    Zn4    O67       1.97315  1_455   S
    Zn4    O45       1.97274  1_455   S
    C35    O83       1.27765      .   S
    C41    O80       1.27848      .   S
    C43    O74       1.27837      .   S
    O66    C20       1.27684      .   S
    O58    C16       1.27683      .   S
    O67    C20       1.27727  1_655   S
    O59    C16       1.27694  1_565   S
    O51    C26       1.27741  1_565   S
    O45    C26       1.27722  1_655   S
    O83    Zn13      1.97224      .   S
    O80    Zn7       1.97281      .   S
    O74    Zn11      1.97336      .   S
    O90    Zn7       1.96652      .   S
    O90    Zn11      1.96671      .   S
    Zn7    O70       1.97317      .   S
    Zn7    O82       1.97113      .   S
    Zn11   O76       1.97381      .   S
    Zn11   O86       1.97147      .   S
    Zn13   O22       1.97280      .   S
    Zn13   O87       1.97268      .   S
    O76    C39       1.27848      .   S
    O70    C39       1.27840      .   S
    O82    C33       1.27774      .   S
    O86    C37       1.27783      .   S
    O22    C33       1.27760      .   S
    O87    C37       1.27762      .   S
    C17    O57       1.27760      .   S
    C17    O56       1.27785      .   S
    C21    O65       1.27760      .   S
    C21    O64       1.27775      .   S
    C27    O50       1.27840      .   S
    C27    O44       1.27848      .   S
    O57    Zn5       1.97187      .   S
    O65    Zn5       1.97205      .   S
    O56    Zn15      1.97162      .   S
    O64    Zn3       1.97117      .   S
    O50    Zn3       1.97317      .   S
    O44    Zn15      1.97382      .   S
    Zn5    O61       1.97247      .   S
    Zn15   O68       1.96673      .   S
    Zn15   O54       1.97259      .   S
    Zn3    O68       1.96652      .   S
    Zn3    O48       1.97281      .   S
    C38    O77       1.27723  1_655   S
    C38    O71       1.27739  1_565   S
    C36    O89       1.27694  1_565   S
    C36    O88       1.27682      .   S
    C32    O24       1.27641  1_655   S
    C32    O23       1.27684      .   S
    O54    C29       1.27908      .   S
    O48    C31       1.27834      .   S
    O61    C19       1.27799      .   S
    O77    Zn8       1.97273  1_455   S
    O71    Zn12      1.97344  1_545   S
    O89    Zn12      1.97471  1_545   S
    O24    Zn8       1.97399  1_455   S
    O88    Zn14      1.97252      .   S
    O23    Zn14      1.97287      .   S
    Zn1    O46       1.97348      .   S
    Zn1    O52       1.97448      .   S
    Zn1    O60       1.97216      .   S
    C29    O46       1.27832      .   S
    C31    O52       1.27853      .   S
    C19    O60       1.27779      .   S
    Zn8    O91       1.96894      .   S
    Zn8    O73       1.97098  1_655   S
    Zn12   O91       1.96936      .   S
    Zn12   O79       1.97292  1_565   S
    Zn14   O84       1.97218      .   S
    O73    C40       1.27857  1_455   S
    O84    C34       1.27694      .   S
    O79    C42       1.27739  1_545   S
    O68    Zn1       1.96698      .   S
    O68    Zn5       1.96820      .   S
    O69    Zn0       1.96936      .   S
    O69    Zn2       1.96968      .   S
    O90    Zn9       1.96728      .   S
    O90    Zn13      1.96716      .   S
    O91    Zn10      1.96968      .   S
    O91    Zn14      1.96938      .   S
