# CIF file generated by openbabel 2.4.90, see http://openbabel.sf.net
data_I
_chemical_name_common ''
_cell_length_a 18.488
_cell_length_b 18.475
_cell_length_c 18.451
_cell_angle_alpha 59.888
_cell_angle_beta 59.923
_cell_angle_gamma 59.966
_space_group_name_H-M_alt 'P 1'
_space_group_name_Hall 'P 1'
loop_
    _symmetry_equiv_pos_as_xyz
    x,y,z
loop_
    _atom_site_label
    _atom_site_type_symbol
    _atom_site_fract_x
    _atom_site_fract_y
    _atom_site_fract_z
    _atom_site_occupancy
    N0      N    0.40739   0.90497   0.90501   1.000
    N1      N    0.40501   0.90527   0.40504   1.000
    N2      N    0.40506   0.40502   0.90512   1.000
    N3      N    0.90509   0.90506   0.40737   1.000
    N4      N    0.59501   0.09469   0.59493   1.000
    N5      N    0.90504   0.40734   0.90512   1.000
    N6      N    0.09494   0.09490   0.59251   1.000
    N7      N    0.59263   0.09499   0.09493   1.000
    N8      N    0.09447   0.59501   0.59494   1.000
    N9      N    0.59497   0.59494   0.09480   1.000
    N10     N    0.90556   0.40494   0.40502   1.000
    N11     N    0.09499   0.59262   0.09484   1.000
    Zr12    Zr   0.65529   0.65514   0.65512   1.000
    O13     O    0.55078   0.75967   0.55060   1.000
    O14     O    0.55175   0.75946   0.75953   1.000
    O15     O    0.75988   0.55064   0.55061   1.000
    O16     O    0.55077   0.55063   0.75963   1.000
    O17     O    0.75955   0.55165   0.75958   1.000
    O18     O    0.75962   0.75953   0.55161   1.000
    Zr19    Zr   0.84473   0.84475   0.84474   1.000
    O20     O    0.73934   0.94927   0.94930   1.000
    O21     O    0.94925   0.73934   0.94926   1.000
    O22     O    0.74043   0.74040   0.94926   1.000
    O23     O    0.74047   0.94918   0.74036   1.000
    O24     O    0.94906   0.74047   0.74038   1.000
    O25     O    0.94926   0.94926   0.73927   1.000
    Zr26    Zr   0.34473   0.34482   0.34483   1.000
    O27     O    0.44925   0.44933   0.24032   1.000
    O28     O    0.44828   0.24050   0.24043   1.000
    O29     O    0.24047   0.44831   0.24037   1.000
    O30     O    0.24041   0.24043   0.44833   1.000
    O31     O    0.24014   0.44932   0.44936   1.000
    O32     O    0.44924   0.24029   0.44936   1.000
    Zr33    Zr   0.15529   0.15521   0.15521   1.000
    O34     O    0.05077   0.05070   0.26067   1.000
    O35     O    0.05078   0.26061   0.05069   1.000
    O36     O    0.25955   0.05078   0.25960   1.000
    O37     O    0.05097   0.25949   0.25958   1.000
    O38     O    0.26069   0.05070   0.05065   1.000
    O39     O    0.25960   0.25956   0.05068   1.000
loop_
    _geom_bond_atom_site_label_1
    _geom_bond_atom_site_label_2
    _geom_bond_distance
    _geom_bond_site_symmetry_2
    _ccdc_geom_bond_type
    Zr12   O13       2.72865      .   S
    N1     O13       3.80274      .   S
    Zr12   O14       2.72494      .   S
    N0     O14       3.79920      .   S
    Zr12   O15       2.72887      .   S
    N10    O15       3.80281      .   S
    Zr12   O16       2.72858      .   S
    N2     O16       3.80270      .   S
    Zr12   O17       2.72450      .   S
    N5     O17       3.79875      .   S
    Zr12   O18       2.72440      .   S
    N3     O18       3.79857      .   S
    Zr19   O20       2.72967      .   S
    N7     O20       3.80375  1_544   S
    Zr19   O21       2.72866      .   S
    N11    O21       3.80264  1_454   S
    Zr19   O22       2.72355      .   S
    N9     O22       3.79742  1_554   S
    Zr19   O23       2.72334      .   S
    N4     O23       3.79715  1_545   S
    Zr19   O24       2.72392      .   S
    N8     O24       3.79772  1_455   S
    Zr19   O25       2.72866      .   S
    N6     O25       3.80260  1_445   S
    Zr26   O27       2.72858      .   S
    N9     O27       3.80270      .   S
    Zr26   O28       2.72493      .   S
    N7     O28       3.79930      .   S
    Zr26   O29       2.72447      .   S
    N11    O29       3.79874      .   S
    Zr26   O30       2.72439      .   S
    N6     O30       3.79858      .   S
    Zr26   O31       2.72893      .   S
    N8     O31       3.80279      .   S
    Zr26   O32       2.72868      .   S
    N4     O32       3.80276      .   S
    Zr33   O34       2.72865      .   S
    N3     O34       3.80260  1_665   S
    Zr33   O35       2.72858      .   S
    N5     O35       3.80262  1_656   S
    Zr33   O36       2.72339      .   S
    N1     O36       3.79718  1_565   S
    Zr33   O37       2.72398      .   S
    N10    O37       3.79770  1_655   S
    Zr33   O38       2.72964      .   S
    N0     O38       3.80385  1_566   S
    Zr33   O39       2.72355      .   S
    N2     O39       3.79742  1_556   S
