# CIF file generated by openbabel 2.4.90, see http://openbabel.sf.net
data_I
_chemical_name_common ''
_cell_length_a 15.191
_cell_length_b 15.284
_cell_length_c 22.58
_cell_angle_alpha 107.064
_cell_angle_beta 106.784
_cell_angle_gamma 97.779
_space_group_name_H-M_alt 'P 1'
_space_group_name_Hall 'P 1'
loop_
    _symmetry_equiv_pos_as_xyz
    x,y,z
loop_
    _atom_site_label
    _atom_site_type_symbol
    _atom_site_fract_x
    _atom_site_fract_y
    _atom_site_fract_z
    _atom_site_occupancy
    H0      H    0.27301   0.16431   0.50001   1.000
    H1      H    0.27281   0.66421   0.99994   1.000
    H2      H    0.27278   0.66417   0.49990   1.000
    H3      H    0.77281   0.16420   0.99994   1.000
    H4      H    0.77276   0.16420   0.49991   1.000
    H5      H    0.77302   0.66432   0.50001   1.000
    H6      H    0.22719   0.33607   0.50006   1.000
    H7      H    0.22739   0.83618   0.00010   1.000
    H8      H    0.22730   0.83616   0.50011   1.000
    H9      H    0.72731   0.33618   0.50011   1.000
    H10     H    0.72720   0.83608   0.50006   1.000
    C11     C    0.21100   0.03509   0.37667   1.000
    C12     C    0.21087   0.03510   0.87666   1.000
    C13     C    0.21065   0.53497   0.37658   1.000
    C14     C    0.21071   0.53503   0.87660   1.000
    C15     C    0.71064   0.03500   0.37658   1.000
    C16     C    0.71070   0.03502   0.87660   1.000
    C17     C    0.71101   0.53510   0.37667   1.000
    C18     C    0.71086   0.53508   0.87666   1.000
    C19     C    0.22641   0.01659   0.44010   1.000
    C20     C    0.22639   0.01661   0.94012   1.000
    C21     C    0.22616   0.51645   0.44002   1.000
    C22     C    0.22624   0.51651   0.94004   1.000
    C23     C    0.72616   0.01648   0.44000   1.000
    C24     C    0.72620   0.01649   0.94004   1.000
    C25     C    0.72643   0.51661   0.44012   1.000
    C26     C    0.72637   0.51659   0.94012   1.000
    C27     C    0.16501   0.34155   0.37674   1.000
    C28     C    0.16504   0.34166   0.87675   1.000
    C29     C    0.16513   0.84176   0.37682   1.000
    C30     C    0.16513   0.84178   0.87682   1.000
    C31     C    0.66513   0.34179   0.37682   1.000
    C32     C    0.66511   0.34176   0.87682   1.000
    C33     C    0.66502   0.84157   0.37670   1.000
    C34     C    0.66502   0.84163   0.87670   1.000
    C35     C    0.21328   0.42368   0.44000   1.000
    C36     C    0.21329   0.42374   0.94007   1.000
    C37     C    0.21347   0.92381   0.44014   1.000
    C38     C    0.21345   0.92384   0.94015   1.000
    C39     C    0.71347   0.42384   0.44010   1.000
    C40     C    0.71343   0.42382   0.94015   1.000
    C41     C    0.71328   0.92369   0.44006   1.000
    C42     C    0.71329   0.92371   0.94000   1.000
    C43     C    0.28901   0.46520   0.12333   1.000
    C44     C    0.28907   0.46522   0.62335   1.000
    C45     C    0.28938   0.96530   0.12342   1.000
    C46     C    0.28924   0.96528   0.62341   1.000
    C47     C    0.78937   0.46529   0.12342   1.000
    C48     C    0.78923   0.46530   0.62341   1.000
    C49     C    0.78900   0.96518   0.12333   1.000
    C50     C    0.78906   0.96523   0.62335   1.000
    C51     C    0.27371   0.48378   0.05992   1.000
    C52     C    0.27377   0.48379   0.55994   1.000
    C53     C    0.27397   0.98389   0.06001   1.000
    C54     C    0.27393   0.98388   0.56001   1.000
    C55     C    0.77395   0.48388   0.06001   1.000
    C56     C    0.77392   0.48391   0.56000   1.000
    C57     C    0.77371   0.98375   0.05992   1.000
    C58     C    0.77376   0.98380   0.55994   1.000
    C59     C    0.33506   0.15880   0.12332   1.000
    C60     C    0.33505   0.15879   0.62332   1.000
    C61     C    0.33495   0.65861   0.12324   1.000
    C62     C    0.33497   0.65867   0.62324   1.000
    C63     C    0.83494   0.15859   0.12323   1.000
    C64     C    0.83496   0.15869   0.62324   1.000
    C65     C    0.83505   0.65878   0.12331   1.000
    C66     C    0.83505   0.65880   0.62332   1.000
    C67     C    0.28689   0.07668   0.05999   1.000
    C68     C    0.28685   0.07667   0.55999   1.000
    C69     C    0.28671   0.57655   0.05990   1.000
    C70     C    0.28671   0.57656   0.55991   1.000
    C71     C    0.78668   0.07653   0.05990   1.000
    C72     C    0.78670   0.07658   0.55991   1.000
    C73     C    0.78687   0.57665   0.05999   1.000
    C74     C    0.78686   0.57668   0.56000   1.000
    C75     C    0.26214   0.09239   0.40000   1.000
    C76     C    0.26219   0.09238   0.50003   1.000
    C77     C    0.26198   0.59228   0.99995   1.000
    C78     C    0.26198   0.59224   0.49994   1.000
    C79     C    0.76198   0.09227   0.99995   1.000
    C80     C    0.76196   0.09227   0.49995   1.000
    C81     C    0.76212   0.59236   0.20000   1.000
    C82     C    0.76219   0.59239   0.50004   1.000
    C83     C    0.23800   0.40800   0.00000   1.000
    C84     C    0.23800   0.40799   0.50002   1.000
    C85     C    0.23821   0.90811   0.00000   1.000
    C86     C    0.23815   0.90809   0.50009   1.000
    C87     C    0.73819   0.40810   0.90000   1.000
    C88     C    0.73816   0.40812   0.50009   1.000
    C89     C    0.73797   0.90797   0.00000   1.000
    C90     C    0.73801   0.90801   0.50002   1.000
    O91     O    0.16635   0.09787   0.36864   1.000
    O92     O    0.16629   0.09795   0.86867   1.000
    O93     O    0.16614   0.59789   0.36860   1.000
    O94     O    0.16620   0.59795   0.86865   1.000
    O95     O    0.66614   0.09792   0.36864   1.000
    O96     O    0.66618   0.09793   0.86865   1.000
    O97     O    0.66636   0.59789   0.36864   1.000
    O98     O    0.66628   0.59793   0.86867   1.000
    O99     O    0.24817   0.48859   0.33784   1.000
    O100    O    0.24825   0.48865   0.83788   1.000
    O101    O    0.24873   0.98879   0.33804   1.000
    O102    O    0.24850   0.98874   0.83798   1.000
    O103    O    0.74873   0.48881   0.33805   1.000
    O104    O    0.74848   0.48874   0.83798   1.000
    O105    O    0.74817   0.98859   0.33785   1.000
    O106    O    0.74825   0.98863   0.83787   1.000
    O107    O    0.20134   0.27050   0.36872   1.000
    O108    O    0.20127   0.27055   0.86872   1.000
    O109    O    0.20124   0.77058   0.36870   1.000
    O110    O    0.20126   0.77061   0.86877   1.000
    O111    O    0.70124   0.27061   0.36877   1.000
    O112    O    0.70124   0.27060   0.86878   1.000
    O113    O    0.70133   0.77051   0.36872   1.000
    O114    O    0.70127   0.77054   0.86872   1.000
    O115    O    0.08893   0.34931   0.33813   1.000
    O116    O    0.08898   0.34953   0.83815   1.000
    O117    O    0.08917   0.84979   0.33820   1.000
    O118    O    0.08913   0.84976   0.83823   1.000
    O119    O    0.58917   0.34982   0.33820   1.000
    O120    O    0.58910   0.34974   0.83823   1.000
    O121    O    0.58893   0.84935   0.33814   1.000
    O122    O    0.58897   0.84950   0.83810   1.000
    O123    O    0.33364   0.40241   0.13137   1.000
    O124    O    0.33370   0.40242   0.63138   1.000
    O125    O    0.33388   0.90237   0.13137   1.000
    O126    O    0.33380   0.90241   0.63100   1.000
    O127    O    0.83386   0.40236   0.13137   1.000
    O128    O    0.83379   0.40243   0.63140   1.000
    O129    O    0.83364   0.90239   0.13137   1.000
    O130    O    0.83369   0.90243   0.63138   1.000
    O131    O    0.25171   0.01159   0.16209   1.000
    O132    O    0.25149   0.01154   0.66204   1.000
    O133    O    0.25113   0.51138   0.16189   1.000
    O134    O    0.25124   0.51143   0.66193   1.000
    O135    O    0.75113   0.01138   0.16189   1.000
    O136    O    0.75122   0.01144   0.66193   1.000
    O137    O    0.75171   0.51158   0.16209   1.000
    O138    O    0.75149   0.51154   0.66204   1.000
    O139    O    0.29863   0.22981   0.13128   1.000
    O140    O    0.29863   0.22980   0.63129   1.000
    O141    O    0.29871   0.72973   0.13123   1.000
    O142    O    0.29865   0.72974   0.63123   1.000
    O143    O    0.79870   0.22971   0.13123   1.000
    O144    O    0.79864   0.22977   0.63123   1.000
    O145    O    0.79862   0.72979   0.13128   1.000
    O146    O    0.79863   0.72981   0.63129   1.000
    O147    O    0.41115   0.15117   0.16197   1.000
    O148    O    0.41110   0.15112   0.66199   1.000
    O149    O    0.41096   0.65078   0.16188   1.000
    O150    O    0.41099   0.65091   0.66190   1.000
    O151    O    0.91093   0.15074   0.16188   1.000
    O152    O    0.91099   0.15094   0.66190   1.000
    O153    O    0.91114   0.65114   0.16197   1.000
    O154    O    0.91110   0.65113   0.66200   1.000
loop_
    _geom_bond_atom_site_label_1
    _geom_bond_atom_site_label_2
    _geom_bond_distance
    _geom_bond_site_symmetry_2
    _ccdc_geom_bond_type
    H7     C85       1.09022      .   S
    C69    C51       1.40497      .   S
    C69    C61       1.49962      .   S
    C69    C77       1.39755  1_554   S
    C71    C57       1.40518  1_545   S
    C71    C63       1.49950      .   S
    C71    C79       1.39756  1_554   S
    C57    C49       1.49961      .   S
    C57    C89       1.39737      .   S
    C51    C43       1.49963      .   S
    C51    C83       1.39737      .   S
    C73    C55       1.40504      .   S
    C73    C65       1.49973      .   S
    C67    C53       1.40525  1_545   S
    C67    C59       1.49984      .   S
    C53    C45       1.49965      .   S
    C53    C85       1.39866      .   S
    C55    C47       1.49963      .   S
    C63    O143      1.27335      .   S
    C63    O151      1.27513      .   S
    C61    O141      1.27336      .   S
    C61    O149      1.27501      .   S
    C65    O145      1.27354      .   S
    C65    O153      1.27491      .   S
    C59    O139      1.27353      .   S
    C59    O147      1.27478      .   S
    C43    O123      1.27325      .   S
    C43    O133      1.27510      .   S
    C49    O129      1.27325      .   S
    C49    O135      1.27522  1_565   S
    C45    O125      1.27330      .   S
    C45    O131      1.27518  1_565   S
    C47    O127      1.27331      .   S
    C47    O137      1.27498      .   S
    O137   C81       1.23739      .   S
    O99    C13       1.27514      .   S
    O105   C15       1.27518  1_565   S
    O101   C11       1.27531  1_565   S
    O103   C17       1.27501      .   S
    O115   C27       1.27513      .   S
    O121   C33       1.27472      .   S
    O117   C29       1.27542      .   S
    O119   C31       1.27546      .   S
    O93    C13       1.27349      .   S
    O95    C15       1.27329      .   S
    O97    C17       1.27323      .   S
    O91    C11       1.27324      .   S
    O109   C29       1.27313      .   S
    O113   C33       1.27320      .   S
    O107   C27       1.27326      .   S
    O111   C31       1.27310      .   S
    C15    C23       1.49916      .   S
    C13    C21       1.49963      .   S
    C17    C25       1.49974      .   S
    C11    C19       1.49933      .   S
    C11    C75       0.97806      .   S
    C33    C41       1.50036      .   S
    C27    C35       1.49914      .   S
    C29    C37       1.49940      .   S
    C31    C39       1.49888      .   S
    C23    C41       1.40549  1_545   S
    C23    C80       1.39792      .   S
    C35    C21       1.40466      .   S
    C35    C84       1.39868      .   S
    C21    C78       1.39752      .   S
    C41    C90       1.39743      .   S
    C39    C25       1.40463      .   S
    C39    C88       1.39833      .   S
    C19    C37       1.40528  1_545   S
    C19    C76       1.39757      .   S
    C25    C82       1.39742      .   S
    C37    C86       1.39746      .   S
    H2     C78       1.08960      .   S
    H4     C80       1.08961      .   S
    C78    C70       1.39761      .   S
    C80    C72       1.39743      .   S
    H0     C76       1.08954      .   S
    H5     C82       1.08963      .   S
    C90    H10       1.08962      .   S
    C90    C58       1.39752      .   S
    C84    H6        1.08960      .   S
    C84    C52       1.39754      .   S
    C76    C68       1.39759      .   S
    C82    C74       1.39761      .   S
    C88    H9        1.08959      .   S
    C88    C56       1.39730      .   S
    C86    H8        1.08959      .   S
    C86    C54       1.39745      .   S
    C72    C58       1.40525  1_545   S
    C72    C64       1.49983      .   S
    C70    C52       1.40504      .   S
    C70    C62       1.49985      .   S
    C58    C50       1.49964      .   S
    C52    C44       1.49959      .   S
    C68    C54       1.40525  1_545   S
    C68    C60       1.49984      .   S
    C56    C74       1.40489      .   S
    C56    C48       1.49987      .   S
    C74    C66       1.49969      .   S
    C54    C46       1.49963      .   S
    C64    O144      1.27347      .   S
    C64    O152      1.27497      .   S
    C62    O142      1.27346      .   S
    C62    O150      1.27498      .   S
    C66    O146      1.27353      .   S
    C66    O154      1.27488      .   S
    C60    O140      1.27353      .   S
    C60    O148      1.27481      .   S
    C50    O130      1.27324      .   S
    C50    O136      1.27528  1_565   S
    C44    O124      1.27324      .   S
    C44    O134      1.27507      .   S
    C48    O128      1.27331      .   S
    C48    O138      1.27508      .   S
    C46    O126      1.27144      .   S
    C46    O132      1.27521  1_565   S
    O106   C16       1.27537  1_565   S
    O100   C14       1.27508      .   S
    O102   C12       1.27534  1_565   S
    O104   C18       1.27516      .   S
    O122   C34       1.27526      .   S
    O116   C28       1.27536      .   S
    O120   C32       1.27538      .   S
    O118   C30       1.27540      .   S
    O94    C14       1.27333      .   S
    O96    C16       1.27332      .   S
    O92    C12       1.27324      .   S
    O98    C18       1.27326      .   S
    O114   C34       1.27313      .   S
    O108   C28       1.27312      .   S
    O110   C30       1.27308      .   S
    O112   C32       1.27310      .   S
    C14    C22       1.49956      .   S
    C16    C24       1.49961      .   S
    C12    C20       1.49975      .   S
    C18    C26       1.49978      .   S
    C34    C42       1.49927      .   S
    C28    C36       1.49950      .   S
    C32    C87       1.25804      .   S
    C30    C38       1.49956      .   S
    C42    C24       1.40473  1_565   S
    C42    C89       1.39866  1_556   S
    C22    C36       1.40504      .   S
    C22    C77       1.39720      .   S
    C24    C79       1.39719      .   S
    C36    C83       1.39716  1_556   S
    C26    C40       1.40499      .   S
    C20    C38       1.40522  1_545   S
    C40    C87       1.05580      .   S
    C38    C85       1.39539  1_556   S
    H3     C79       1.08956      .   S
    H1     C77       1.08954      .   S
    O91    C75       1.44857      .   S
    O101   C75       1.71880  1_565   S
