# CIF file generated by openbabel 2.4.90, see http://openbabel.sf.net
data_I
_chemical_name_common ''
_cell_length_a 15.191
_cell_length_b 15.284
_cell_length_c 22.58
_cell_angle_alpha 107.064
_cell_angle_beta 106.784
_cell_angle_gamma 97.779
_space_group_name_H-M_alt 'P 1'
_space_group_name_Hall 'P 1'
loop_
    _symmetry_equiv_pos_as_xyz
    x,y,z
loop_
    _atom_site_label
    _atom_site_type_symbol
    _atom_site_fract_x
    _atom_site_fract_y
    _atom_site_fract_z
    _atom_site_occupancy
    Ga0     Ga   0.14451   0.14474   0.78974   1.000
    Ga1     Ga   0.14441   0.64479   0.28976   1.000
    Ga2     Ga   0.14443   0.64480   0.78976   1.000
    Ga3     Ga   0.64440   0.14480   0.28976   1.000
    Ga4     Ga   0.64442   0.14480   0.78970   1.000
    Ga5     Ga   0.64460   0.64466   0.28973   1.000
    Ga6     Ga   0.64451   0.64472   0.78975   1.000
    Ga7     Ga   0.35528   0.35551   0.21022   1.000
    Ga8     Ga   0.35530   0.35551   0.71023   1.000
    Ga9     Ga   0.35548   0.85539   0.21020   1.000
    Ga10    Ga   0.35539   0.85544   0.71021   1.000
    Ga11    Ga   0.85548   0.35539   0.21021   1.000
    Ga12    Ga   0.85538   0.35546   0.71021   1.000
    Ga13    Ga   0.85527   0.85550   0.21022   1.000
    Ga14    Ga   0.85530   0.85551   0.71020   1.000
    Ga15    Ga   0.00000   0.25000   0.25002   1.000
    Ga16    Ga   0.00008   0.25036   0.75008   1.000
    Ga17    Ga   0.00018   0.75070   0.25014   1.000
    Ga18    Ga   0.00017   0.75067   0.75016   1.000
    Ga19    Ga   0.50018   0.25074   0.25014   1.000
    Ga20    Ga   0.50015   0.25066   0.75016   1.000
    Ga21    Ga   0.50002   0.75007   0.25003   1.000
    Ga22    Ga   0.50007   0.75032   0.75007   1.000
    Ga23    Ga   0.25033   0.00016   0.25000   1.000
    Ga24    Ga   0.24990   0.00007   0.74998   1.000
    Ga25    Ga   0.24940   0.49993   0.24982   1.000
    Ga26    Ga   0.24950   0.49997   0.74980   1.000
    Ga27    Ga   0.74939   0.99993   0.24982   1.000
    Ga28    Ga   0.74949   0.99998   0.74985   1.000
    Ga29    Ga   0.75033   0.50015   0.25008   1.000
    Ga30    Ga   0.74989   0.50006   0.74990   1.000
    Ga31    Ga   0.14461   0.14466   0.28974   1.000
