# CIF file generated by openbabel 2.4.90, see http://openbabel.sf.net
data_I
_chemical_name_common ''
_cell_length_a 15.191
_cell_length_b 15.284
_cell_length_c 22.58
_cell_angle_alpha 107.064
_cell_angle_beta 106.784
_cell_angle_gamma 97.779
_space_group_name_H-M_alt 'P 1'
_space_group_name_Hall 'P 1'
loop_
    _symmetry_equiv_pos_as_xyz
    x,y,z
loop_
    _atom_site_label
    _atom_site_type_symbol
    _atom_site_fract_x
    _atom_site_fract_y
    _atom_site_fract_z
    _atom_site_occupancy
    H0      H    0.51571   0.16842   0.33575   1.000
    H1      H    0.51571   0.16833   0.83575   1.000
    H2      H    0.51577   0.66797   0.33560   1.000
    H3      H    0.51572   0.66812   0.83569   1.000
    H4      H    0.00000   0.16795   0.33567   1.000
    H5      H    0.00000   0.16814   0.83569   1.000
    H6      H    0.00000   0.66839   0.33574   1.000
    H7      H    0.00000   0.66835   0.83575   1.000
    H8      H    0.07421   0.46645   0.23076   1.000
    H9      H    0.07426   0.46651   0.73075   1.000
    H10     H    0.07480   0.96648   0.23081   1.000
    H11     H    0.07451   0.96651   0.73079   1.000
    H12     H    0.57478   0.46650   0.23081   1.000
    H13     H    0.57450   0.46651   0.73079   1.000
    H14     H    0.57420   0.96646   0.23075   1.000
    H15     H    0.57425   0.96649   0.73070   1.000
    H16     H    0.31929   0.16804   0.33587   1.000
    H17     H    0.31916   0.16791   0.83580   1.000
    H18     H    0.31900   0.66769   0.33570   1.000
    H19     H    0.31904   0.66775   0.83573   1.000
    H20     H    0.81898   0.16770   0.33571   1.000
    H21     H    0.81903   0.16776   0.83572   1.000
    H22     H    0.81929   0.66804   0.33587   1.000
    H23     H    0.81916   0.66789   0.83580   1.000
    H24     H    0.15633   0.26417   0.23087   1.000
    H25     H    0.15638   0.26422   0.73087   1.000
    H26     H    0.15650   0.76428   0.23090   1.000
    H27     H    0.15646   0.76429   0.73092   1.000
    H28     H    0.65650   0.26430   0.23094   1.000
    H29     H    0.65645   0.26429   0.73092   1.000
    H30     H    0.65634   0.76417   0.23086   1.000
    H31     H    0.65637   0.76421   0.73087   1.000
    H32     H    0.98430   0.33196   0.16430   1.000
    H33     H    0.98425   0.33214   0.66432   1.000
    H34     H    0.98422   0.83234   0.16430   1.000
    H35     H    0.98423   0.83230   0.66436   1.000
    H36     H    0.48421   0.33236   0.16434   1.000
    H37     H    0.48422   0.33229   0.66436   1.000
    H38     H    0.48430   0.83198   0.16430   1.000
    H39     H    0.48424   0.83212   0.66432   1.000
    H40     H    0.42556   0.03377   0.26917   1.000
    H41     H    0.42528   0.03376   0.76915   1.000
    H42     H    0.42497   0.53371   0.26910   1.000
    H43     H    0.42503   0.53374   0.76911   1.000
    H44     H    0.92497   0.03370   0.26911   1.000
    H45     H    0.92502   0.03375   0.76910   1.000
    H46     H    0.92557   0.53375   0.26917   1.000
    H47     H    0.92527   0.53376   0.76915   1.000
    H48     H    0.18059   0.33203   0.16405   1.000
    H49     H    0.18063   0.33209   0.66407   1.000
    H50     H    0.18090   0.83238   0.16422   1.000
    H51     H    0.18077   0.83223   0.66415   1.000
    H52     H    0.68090   0.33238   0.16422   1.000
    H53     H    0.68075   0.33224   0.66415   1.000
    H54     H    0.68059   0.83202   0.16405   1.000
    H55     H    0.68063   0.83208   0.66407   1.000
    H56     H    0.34373   0.23602   0.26910   1.000
    H57     H    0.34367   0.23600   0.76909   1.000
    H58     H    0.34356   0.73589   0.26903   1.000
    H59     H    0.34360   0.73593   0.76904   1.000
    H60     H    0.84354   0.23589   0.26904   1.000
    H61     H    0.84359   0.23594   0.76904   1.000
    H62     H    0.84372   0.73600   0.26910   1.000
    H63     H    0.84368   0.73601   0.76909   1.000
    O64     O    0.51120   0.64583   0.78950   1.000
    O65     O    0.12032   0.01619   0.22744   1.000
    O66     O    0.12002   0.01622   0.72740   1.000
    O67     O    0.11963   0.51620   0.22734   1.000
    H68     H    0.22716   0.33606   0.70000   1.000
    O69     O    0.48874   0.35481   0.21053   1.000
    O70     O    0.48875   0.35475   0.71054   1.000
    O71     O    0.48881   0.85439   0.21040   1.000
    O72     O    0.48876   0.85455   0.71050   1.000
    O73     O    0.98879   0.35435   0.21048   1.000
    O74     O    0.01124   0.14562   0.28948   1.000
    O75     O    0.01121   0.14585   0.78950   1.000
    O76     O    0.01121   0.64611   0.28956   1.000
    O77     O    0.01121   0.64608   0.78957   1.000
    O78     O    0.51120   0.14614   0.28957   1.000
    O79     O    0.51120   0.14607   0.78956   1.000
    O80     O    0.51124   0.64565   0.28948   1.000
    O81     O    0.11973   0.51623   0.72735   1.000
    O82     O    0.61963   0.01622   0.22734   1.000
    O83     O    0.61971   0.01623   0.72735   1.000
    O84     O    0.62032   0.51619   0.22744   1.000
    O85     O    0.62001   0.51620   0.72740   1.000
    O86     O    0.27791   0.14401   0.28967   1.000
    O87     O    0.27774   0.14396   0.78962   1.000
    O88     O    0.27752   0.64385   0.28950   1.000
    O89     O    0.27757   0.64389   0.78950   1.000
    O90     O    0.77751   0.14386   0.28954   1.000
    O91     O    0.77756   0.14390   0.78955   1.000
    O92     O    0.77791   0.64400   0.28967   1.000
    O93     O    0.77773   0.64395   0.78962   1.000
    O94     O    0.10741   0.21116   0.22751   1.000
    O95     O    0.10740   0.21128   0.72753   1.000
    O96     O    0.10743   0.71141   0.22757   1.000
    O97     O    0.10741   0.71141   0.72757   1.000
    O98     O    0.60742   0.21143   0.22757   1.000
    O99     O    0.60740   0.21141   0.72757   1.000
    O100    O    0.60741   0.71118   0.22751   1.000
    O101    O    0.60739   0.71126   0.72752   1.000
    O102    O    0.98876   0.35457   0.71050   1.000
    O103    O    0.98874   0.85479   0.21053   1.000
    O104    O    0.98874   0.85476   0.71054   1.000
    O105    O    0.37949   0.48401   0.27200   1.000
    O106    O    0.37958   0.48402   0.77250   1.000
    O107    O    0.38019   0.98399   0.27260   1.000
    O108    O    0.37988   0.98400   0.77257   1.000
    O109    O    0.88018   0.48399   0.27260   1.000
    O110    O    0.87987   0.48401   0.77257   1.000
    O111    O    0.87948   0.98399   0.27250   1.000
    O112    O    0.87957   0.98402   0.77251   1.000
    O113    O    0.22194   0.35613   0.21026   1.000
    O114    O    0.22199   0.35617   0.71027   1.000
    O115    O    0.22235   0.85628   0.21000   1.000
    O116    O    0.22218   0.85622   0.71034   1.000
    O117    O    0.72235   0.35628   0.21040   1.000
    O118    O    0.72216   0.35623   0.71034   1.000
    O119    O    0.72194   0.85612   0.21026   1.000
    O120    O    0.72199   0.85616   0.71027   1.000
    O121    O    0.39256   0.28915   0.27252   1.000
    O122    O    0.39254   0.28912   0.77250   1.000
    O123    O    0.39255   0.78889   0.27240   1.000
    O124    O    0.39253   0.78897   0.77248   1.000
    O125    O    0.89254   0.28888   0.27240   1.000
    O126    O    0.89252   0.28899   0.77248   1.000
    O127    O    0.89256   0.78913   0.27252   1.000
    O128    O    0.89254   0.78912   0.77253   1.000
loop_
    _geom_bond_atom_site_label_1
    _geom_bond_atom_site_label_2
    _geom_bond_distance
    _geom_bond_site_symmetry_2
    _ccdc_geom_bond_type
    H48    O113      0.97586      .   S
    H54    O119      0.97585      .   S
    H52    O117      0.97583      .   S
    H50    O115      0.96887      .   S
    H34    O103      0.97679      .   S
    H32    O73       0.97585      .   S
    H38    O71       0.97408      .   S
    H36    O69       0.97588      .   S
    O82    H14       0.99173  1_545   S
    O67    H8        0.99169      .   S
    O84    H12       0.99153      .   S
    O65    H10       0.99159  1_545   S
    O94    H24       0.99136      .   S
    O100   H30       0.99138      .   S
    O96    H26       0.99160      .   S
    O98    H28       0.99125      .   S
    H58    O123      0.99180      .   S
    H60    O125      0.99181      .   S
    H42    O105      0.98586      .   S
    H62    O127      0.99133      .   S
    H56    O121      0.99134      .   S
    H44    O111      0.99155  1_545   S
    H46    O109      0.99155      .   S
    H40    O107      0.99163  1_545   S
    O80    H2        0.97435      .   S
    O74    H4        1.06918      .   S
    O88    H18       0.97631      .   S
    O90    H20       0.97577      .   S
    O76    H6        1.06869      .   S
    O78    H0        0.97569      .   S
    O92    H22       0.97580      .   S
    O86    H16       0.97582      .   S
    H55    O120      0.97572      .   S
    H49    O114      0.97572      .   S
    H53    O118      0.97579      .   S
    H51    O116      0.97579      .   S
    H39    O72       0.97570      .   S
    H33    O102      0.97577      .   S
    H37    O70       0.97571      .   S
    H35    O104      0.97578      .   S
    O81    H9        0.99166      .   S
    O83    H15       0.99115  1_545   S
    O85    H13       0.99162      .   S
    O66    H11       0.99173  1_545   S
    O101   H31       0.99132      .   S
    O95    H25       0.99138      .   S
    O97    H27       0.99127      .   S
    O99    H29       0.99127      .   S
    H61    O126      0.99131      .   S
    H59    O124      0.99126      .   S
    H63    O128      0.99131      .   S
    H57    O122      0.99155      .   S
    H45    O112      0.99157  1_545   S
    H43    O106      0.99130      .   S
    H47    O110      0.99154      .   S
    H41    O108      0.99162  1_545   S
    O75    H5        1.06892      .   S
    O89    H19       0.97678      .   S
    O64    H3        0.97592      .   S
    O91    H21       0.97575      .   S
    O79    H1        0.97589      .   S
    O77    H7        1.06871      .   S
    O87    H17       0.97567      .   S
    O93    H23       0.97568      .   S
