# CIF file generated by openbabel 2.4.90, see http://openbabel.sf.net
data_I
_chemical_name_common ''
_cell_length_a 15.191
_cell_length_b 15.284
_cell_length_c 22.58
_cell_angle_alpha 107.064
_cell_angle_beta 106.784
_cell_angle_gamma 97.779
_space_group_name_H-M_alt 'P 1'
_space_group_name_Hall 'P 1'
loop_
    _symmetry_equiv_pos_as_xyz
    x,y,z
loop_
    _atom_site_label
    _atom_site_type_symbol
    _atom_site_fract_x
    _atom_site_fract_y
    _atom_site_fract_z
    _atom_site_occupancy
    C0      C    0.14461   0.14466   0.28974   1.000
    C1      C    0.14451   0.14474   0.78974   1.000
    C2      C    0.14441   0.64479   0.28976   1.000
    C3      C    0.14443   0.64480   0.78976   1.000
    C4      C    0.64440   0.14480   0.28976   1.000
    C5      C    0.64442   0.14480   0.78970   1.000
    C6      C    0.64460   0.64466   0.28973   1.000
    C7      C    0.64451   0.64472   0.78975   1.000
    C8      C    0.35528   0.35551   0.21022   1.000
    C9      C    0.35530   0.35551   0.71023   1.000
    C10     C    0.35548   0.85539   0.21020   1.000
    C11     C    0.35539   0.85544   0.71021   1.000
    C12     C    0.85548   0.35539   0.21021   1.000
    C13     C    0.85538   0.35546   0.71021   1.000
    C14     C    0.85527   0.85550   0.21022   1.000
    C15     C    0.85530   0.85551   0.71020   1.000
    C16     C    0.00000   0.25000   0.25002   1.000
    C17     C    0.00008   0.25036   0.75008   1.000
    C18     C    0.00018   0.75070   0.25014   1.000
    C19     C    0.00017   0.75067   0.75016   1.000
    C20     C    0.50018   0.25074   0.25014   1.000
    C21     C    0.50015   0.25066   0.75016   1.000
    C22     C    0.50002   0.75007   0.25003   1.000
    C23     C    0.50007   0.75032   0.75007   1.000
    C24     C    0.25033   0.00016   0.25000   1.000
    C25     C    0.24990   0.00007   0.74998   1.000
    C26     C    0.24940   0.49993   0.24982   1.000
    C27     C    0.24950   0.49997   0.74980   1.000
    C28     C    0.74939   0.99993   0.24982   1.000
    C29     C    0.74949   0.99998   0.74985   1.000
    C30     C    0.75033   0.50015   0.25008   1.000
    C31     C    0.74989   0.50006   0.74990   1.000
    C32     C    0.51571   0.16842   0.33575   1.000
    C33     C    0.51571   0.16833   0.83575   1.000
    C34     C    0.51577   0.66797   0.33560   1.000
    C35     C    0.51572   0.66812   0.83569   1.000
    C36     C    0.00000   0.16795   0.33567   1.000
    C37     C    0.00000   0.16814   0.83569   1.000
    C38     C    0.00000   0.66839   0.33574   1.000
    C39     C    0.00000   0.66835   0.83575   1.000
    C40     C    0.07421   0.46645   0.23076   1.000
    C41     C    0.07426   0.46651   0.73075   1.000
    C42     C    0.07480   0.96648   0.23081   1.000
    C43     C    0.07451   0.96651   0.73079   1.000
    C44     C    0.57478   0.46650   0.23081   1.000
    C45     C    0.57450   0.46651   0.73079   1.000
    C46     C    0.57420   0.96646   0.23075   1.000
    C47     C    0.57425   0.96649   0.73070   1.000
    C48     C    0.31929   0.16804   0.33587   1.000
    C49     C    0.31916   0.16791   0.83580   1.000
    C50     C    0.31900   0.66769   0.33570   1.000
    C51     C    0.31904   0.66775   0.83573   1.000
    C52     C    0.81898   0.16770   0.33571   1.000
    C53     C    0.81903   0.16776   0.83572   1.000
    C54     C    0.81929   0.66804   0.33587   1.000
    C55     C    0.81916   0.66789   0.83580   1.000
    C56     C    0.15633   0.26417   0.23087   1.000
    C57     C    0.15638   0.26422   0.73087   1.000
    C58     C    0.15650   0.76428   0.23090   1.000
    C59     C    0.15646   0.76429   0.73092   1.000
    C60     C    0.65650   0.26430   0.23094   1.000
    C61     C    0.65645   0.26429   0.73092   1.000
    C62     C    0.65634   0.76417   0.23086   1.000
    C63     C    0.65637   0.76421   0.73087   1.000
    C64     C    0.98430   0.33196   0.16430   1.000
    C65     C    0.98425   0.33214   0.66432   1.000
    C66     C    0.98422   0.83234   0.16430   1.000
    C67     C    0.98423   0.83230   0.66436   1.000
    C68     C    0.48421   0.33236   0.16434   1.000
    C69     C    0.48422   0.33229   0.66436   1.000
    C70     C    0.48430   0.83198   0.16430   1.000
    C71     C    0.48424   0.83212   0.66432   1.000
    C72     C    0.42556   0.03377   0.26917   1.000
    C73     C    0.42528   0.03376   0.76915   1.000
    C74     C    0.42497   0.53371   0.26910   1.000
    C75     C    0.42503   0.53374   0.76911   1.000
    C76     C    0.92497   0.03370   0.26911   1.000
    C77     C    0.92502   0.03375   0.76910   1.000
    C78     C    0.92557   0.53375   0.26917   1.000
    C79     C    0.92527   0.53376   0.76915   1.000
    C80     C    0.18059   0.33203   0.16405   1.000
    C81     C    0.18063   0.33209   0.66407   1.000
    C82     C    0.18090   0.83238   0.16422   1.000
    C83     C    0.18077   0.83223   0.66415   1.000
    C84     C    0.68090   0.33238   0.16422   1.000
    C85     C    0.68075   0.33224   0.66415   1.000
    C86     C    0.68059   0.83202   0.16405   1.000
    C87     C    0.68063   0.83208   0.66407   1.000
    C88     C    0.34373   0.23602   0.26910   1.000
    C89     C    0.34367   0.23600   0.76909   1.000
    C90     C    0.34356   0.73589   0.26903   1.000
    C91     C    0.34360   0.73593   0.76904   1.000
    C92     C    0.84354   0.23589   0.26904   1.000
    C93     C    0.84359   0.23594   0.76904   1.000
    C94     C    0.84372   0.73600   0.26910   1.000
    C95     C    0.84368   0.73601   0.76909   1.000
    C96     C    0.27293   0.16432   0.20000   1.000
    C97     C    0.27301   0.16431   0.50001   1.000
    C98     C    0.27281   0.66421   0.99994   1.000
    C99     C    0.27278   0.66417   0.49990   1.000
    C100    C    0.77281   0.16420   0.99994   1.000
    C101    C    0.77276   0.16420   0.49991   1.000
    C102    C    0.77291   0.66430   0.00000   1.000
    C103    C    0.77302   0.66432   0.50001   1.000
    C104    C    0.22716   0.33606   0.70000   1.000
    C105    C    0.22719   0.33607   0.50006   1.000
    C106    C    0.22739   0.83618   0.00010   1.000
    C107    C    0.22730   0.83616   0.50011   1.000
    C108    C    0.72737   0.33616   0.00010   1.000
    C109    C    0.72731   0.33618   0.50011   1.000
    C110    C    0.72713   0.83604   0.30000   1.000
    C111    C    0.72720   0.83608   0.50006   1.000
    C112    C    0.21100   0.03509   0.37667   1.000
    C113    C    0.21087   0.03510   0.87666   1.000
    C114    C    0.21065   0.53497   0.37658   1.000
    C115    C    0.21071   0.53503   0.87660   1.000
    C116    C    0.71064   0.03500   0.37658   1.000
    C117    C    0.71070   0.03502   0.87660   1.000
    C118    C    0.71101   0.53510   0.37667   1.000
    C119    C    0.71086   0.53508   0.87666   1.000
    C120    C    0.22641   0.01659   0.44010   1.000
    C121    C    0.22639   0.01661   0.94012   1.000
    C122    C    0.22616   0.51645   0.44002   1.000
    C123    C    0.22624   0.51651   0.94004   1.000
    C124    C    0.72616   0.01648   0.44000   1.000
    C125    C    0.72620   0.01649   0.94004   1.000
    C126    C    0.72643   0.51661   0.44012   1.000
    C127    C    0.72637   0.51659   0.94012   1.000
    C128    C    0.16501   0.34155   0.37674   1.000
    C129    C    0.16504   0.34166   0.87675   1.000
    C130    C    0.16513   0.84176   0.37682   1.000
    C131    C    0.16513   0.84178   0.87682   1.000
    C132    C    0.66513   0.34179   0.37682   1.000
    C133    C    0.66511   0.34176   0.87682   1.000
    C134    C    0.66502   0.84157   0.37670   1.000
    C135    C    0.66502   0.84163   0.87670   1.000
    C136    C    0.21328   0.42368   0.44000   1.000
    C137    C    0.21329   0.42374   0.94007   1.000
    C138    C    0.21347   0.92381   0.44014   1.000
    C139    C    0.21345   0.92384   0.94015   1.000
    C140    C    0.71347   0.42384   0.44010   1.000
    C141    C    0.71343   0.42382   0.94015   1.000
    C142    C    0.71328   0.92369   0.44006   1.000
    C143    C    0.71329   0.92371   0.94000   1.000
    C144    C    0.28901   0.46520   0.12333   1.000
    C145    C    0.28907   0.46522   0.62335   1.000
    C146    C    0.28938   0.96530   0.12342   1.000
    C147    C    0.28924   0.96528   0.62341   1.000
    C148    C    0.78937   0.46529   0.12342   1.000
    C149    C    0.78923   0.46530   0.62341   1.000
    C150    C    0.78900   0.96518   0.12333   1.000
    C151    C    0.78906   0.96523   0.62335   1.000
    C152    C    0.27371   0.48378   0.05992   1.000
    C153    C    0.27377   0.48379   0.55994   1.000
    C154    C    0.27397   0.98389   0.06001   1.000
    C155    C    0.27393   0.98388   0.56001   1.000
    C156    C    0.77395   0.48388   0.06001   1.000
    C157    C    0.77392   0.48391   0.56000   1.000
    C158    C    0.77371   0.98375   0.05992   1.000
    C159    C    0.77376   0.98380   0.55994   1.000
    C160    C    0.33506   0.15880   0.12332   1.000
    C161    C    0.33505   0.15879   0.62332   1.000
    C162    C    0.33495   0.65861   0.12324   1.000
    C163    C    0.33497   0.65867   0.62324   1.000
    C164    C    0.83494   0.15859   0.12323   1.000
    C165    C    0.83496   0.15869   0.62324   1.000
    C166    C    0.83505   0.65878   0.12331   1.000
    C167    C    0.83505   0.65880   0.62332   1.000
    C168    C    0.28689   0.07668   0.05999   1.000
    C169    C    0.28685   0.07667   0.55999   1.000
    C170    C    0.28671   0.57655   0.05990   1.000
    C171    C    0.28671   0.57656   0.55991   1.000
    C172    C    0.78668   0.07653   0.05990   1.000
    C173    C    0.78670   0.07658   0.55991   1.000
    C174    C    0.78687   0.57665   0.05999   1.000
    C175    C    0.78686   0.57668   0.56000   1.000
    C176    C    0.26214   0.09239   0.40000   1.000
    C177    C    0.26219   0.09238   0.50003   1.000
    C178    C    0.26198   0.59228   0.99995   1.000
    C179    C    0.26198   0.59224   0.49994   1.000
    C180    C    0.76198   0.09227   0.99995   1.000
    C181    C    0.76196   0.09227   0.49995   1.000
    C182    C    0.76212   0.59236   0.20000   1.000
    C183    C    0.76219   0.59239   0.50004   1.000
    C184    C    0.23800   0.40800   0.00000   1.000
    C185    C    0.23800   0.40799   0.50002   1.000
    C186    C    0.23821   0.90811   0.00000   1.000
    C187    C    0.23815   0.90809   0.50009   1.000
    C188    C    0.73819   0.40810   0.90000   1.000
    C189    C    0.73816   0.40812   0.50009   1.000
    C190    C    0.73797   0.90797   0.00000   1.000
    C191    C    0.73801   0.90801   0.50002   1.000
    C192    C    0.01124   0.14562   0.28948   1.000
    C193    C    0.01121   0.14585   0.78950   1.000
    C194    C    0.01121   0.64611   0.28956   1.000
    C195    C    0.01121   0.64608   0.78957   1.000
    C196    C    0.51120   0.14614   0.28957   1.000
    C197    C    0.51120   0.14607   0.78956   1.000
    C198    C    0.51124   0.64565   0.28948   1.000
    C199    C    0.51120   0.64583   0.78950   1.000
    C200    C    0.12032   0.01619   0.22744   1.000
    C201    C    0.12002   0.01622   0.72740   1.000
    C202    C    0.11963   0.51620   0.22734   1.000
    C203    C    0.11973   0.51623   0.72735   1.000
    C204    C    0.61963   0.01622   0.22734   1.000
    C205    C    0.61971   0.01623   0.72735   1.000
    C206    C    0.62032   0.51619   0.22744   1.000
    C207    C    0.62001   0.51620   0.72740   1.000
    C208    C    0.16635   0.09787   0.36864   1.000
    C209    C    0.16629   0.09795   0.86867   1.000
    C210    C    0.16614   0.59789   0.36860   1.000
    C211    C    0.16620   0.59795   0.86865   1.000
    C212    C    0.66614   0.09792   0.36864   1.000
    C213    C    0.66618   0.09793   0.86865   1.000
    C214    C    0.66636   0.59789   0.36864   1.000
    C215    C    0.66628   0.59793   0.86867   1.000
    C216    C    0.24817   0.48859   0.33784   1.000
    C217    C    0.24825   0.48865   0.83788   1.000
    C218    C    0.24873   0.98879   0.33804   1.000
    C219    C    0.24850   0.98874   0.83798   1.000
    C220    C    0.74873   0.48881   0.33805   1.000
    C221    C    0.74848   0.48874   0.83798   1.000
    C222    C    0.74817   0.98859   0.33785   1.000
    C223    C    0.74825   0.98863   0.83787   1.000
    C224    C    0.27791   0.14401   0.28967   1.000
    C225    C    0.27774   0.14396   0.78962   1.000
    C226    C    0.27752   0.64385   0.28950   1.000
    C227    C    0.27757   0.64389   0.78950   1.000
    C228    C    0.77751   0.14386   0.28954   1.000
    C229    C    0.77756   0.14390   0.78955   1.000
    C230    C    0.77791   0.64400   0.28967   1.000
    C231    C    0.77773   0.64395   0.78962   1.000
    C232    C    0.10741   0.21116   0.22751   1.000
    C233    C    0.10740   0.21128   0.72753   1.000
    C234    C    0.10743   0.71141   0.22757   1.000
    C235    C    0.10741   0.71141   0.72757   1.000
    C236    C    0.60742   0.21143   0.22757   1.000
    C237    C    0.60740   0.21141   0.72757   1.000
    C238    C    0.60741   0.71118   0.22751   1.000
    C239    C    0.60739   0.71126   0.72752   1.000
    C240    C    0.20134   0.27050   0.36872   1.000
    C241    C    0.20127   0.27055   0.86872   1.000
    C242    C    0.20124   0.77058   0.36870   1.000
    C243    C    0.20126   0.77061   0.86877   1.000
    C244    C    0.70124   0.27061   0.36877   1.000
    C245    C    0.70124   0.27060   0.86878   1.000
    C246    C    0.70133   0.77051   0.36872   1.000
    C247    C    0.70127   0.77054   0.86872   1.000
    C248    C    0.08893   0.34931   0.33813   1.000
    C249    C    0.08898   0.34953   0.83815   1.000
    C250    C    0.08917   0.84979   0.33820   1.000
    C251    C    0.08913   0.84976   0.83823   1.000
    C252    C    0.58917   0.34982   0.33820   1.000
    C253    C    0.58910   0.34974   0.83823   1.000
    C254    C    0.58893   0.84935   0.33814   1.000
    C255    C    0.58897   0.84950   0.83810   1.000
    C256    C    0.48874   0.35481   0.21053   1.000
    C257    C    0.48875   0.35475   0.71054   1.000
    C258    C    0.48881   0.85439   0.21040   1.000
    C259    C    0.48876   0.85455   0.71050   1.000
    C260    C    0.98879   0.35435   0.21048   1.000
    C261    C    0.98876   0.35457   0.71050   1.000
    C262    C    0.98874   0.85479   0.21053   1.000
    C263    C    0.98874   0.85476   0.71054   1.000
    C264    C    0.37949   0.48401   0.27200   1.000
    C265    C    0.37958   0.48402   0.77250   1.000
    C266    C    0.38019   0.98399   0.27260   1.000
    C267    C    0.37988   0.98400   0.77257   1.000
    C268    C    0.88018   0.48399   0.27260   1.000
    C269    C    0.87987   0.48401   0.77257   1.000
    C270    C    0.87948   0.98399   0.27250   1.000
    C271    C    0.87957   0.98402   0.77251   1.000
    C272    C    0.33364   0.40241   0.13137   1.000
    C273    C    0.33370   0.40242   0.63138   1.000
    C274    C    0.33388   0.90237   0.13137   1.000
    C275    C    0.33380   0.90241   0.63100   1.000
    C276    C    0.83386   0.40236   0.13137   1.000
    C277    C    0.83379   0.40243   0.63140   1.000
    C278    C    0.83364   0.90239   0.13137   1.000
    C279    C    0.83369   0.90243   0.63138   1.000
    C280    C    0.25171   0.01159   0.16209   1.000
    C281    C    0.25149   0.01154   0.66204   1.000
    C282    C    0.25113   0.51138   0.16189   1.000
    C283    C    0.25124   0.51143   0.66193   1.000
    C284    C    0.75113   0.01138   0.16189   1.000
    C285    C    0.75122   0.01144   0.66193   1.000
    C286    C    0.75171   0.51158   0.16209   1.000
    C287    C    0.75149   0.51154   0.66204   1.000
    C288    C    0.22194   0.35613   0.21026   1.000
    C289    C    0.22199   0.35617   0.71027   1.000
    C290    C    0.22235   0.85628   0.21000   1.000
    C291    C    0.22218   0.85622   0.71034   1.000
    C292    C    0.72235   0.35628   0.21040   1.000
    C293    C    0.72216   0.35623   0.71034   1.000
    C294    C    0.72194   0.85612   0.21026   1.000
    C295    C    0.72199   0.85616   0.71027   1.000
    C296    C    0.39256   0.28915   0.27252   1.000
    C297    C    0.39254   0.28912   0.77250   1.000
    C298    C    0.39255   0.78889   0.27240   1.000
    C299    C    0.39253   0.78897   0.77248   1.000
    C300    C    0.89254   0.28888   0.27240   1.000
    C301    C    0.89252   0.28899   0.77248   1.000
    C302    C    0.89256   0.78913   0.27252   1.000
    C303    C    0.89254   0.78912   0.77253   1.000
    C304    C    0.29863   0.22981   0.13128   1.000
    C305    C    0.29863   0.22980   0.63129   1.000
    C306    C    0.29871   0.72973   0.13123   1.000
    C307    C    0.29865   0.72974   0.63123   1.000
    C308    C    0.79870   0.22971   0.13123   1.000
    C309    C    0.79864   0.22977   0.63123   1.000
    C310    C    0.79862   0.72979   0.13128   1.000
    C311    C    0.79863   0.72981   0.63129   1.000
    C312    C    0.41115   0.15117   0.16197   1.000
    C313    C    0.41110   0.15112   0.66199   1.000
    C314    C    0.41096   0.65078   0.16188   1.000
    C315    C    0.41099   0.65091   0.66190   1.000
    C316    C    0.91093   0.15074   0.16188   1.000
    C317    C    0.91099   0.15094   0.66190   1.000
    C318    C    0.91114   0.65114   0.16197   1.000
    C319    C    0.91110   0.65113   0.66200   1.000
    O320    O    0.23280   0.87214   0.00005   1.000
    O321    O    0.28021   0.53016   0.05991   1.000
    O322    O    0.31083   0.61758   0.09157   1.000
    O323    O    0.27435   0.58441   0.02992   1.000
    O324    O    0.78019   0.03014   0.05991   1.000
    O325    O    0.81081   0.11756   0.09156   1.000
    O326    O    0.77433   0.08440   0.02992   1.000
    O327    O    0.78136   0.97447   0.09162   1.000
    O328    O    0.75584   0.94586   0.02996   1.000
    O329    O    0.28136   0.47449   0.09162   1.000
    O330    O    0.25585   0.44589   0.02996   1.000
    O331    O    0.78041   0.53027   0.06000   1.000
    O332    O    0.81096   0.61772   0.09165   1.000
    O333    O    0.28043   0.03029   0.06000   1.000
    O334    O    0.31097   0.11774   0.09165   1.000
    O335    O    0.28168   0.97459   0.09171   1.000
    O336    O    0.25609   0.94600   0.03000   1.000
    O337    O    0.78166   0.47458   0.09171   1.000
    O338    O    0.81682   0.19415   0.12723   1.000
    O339    O    0.87294   0.15467   0.14255   1.000
    O340    O    0.31683   0.69417   0.12723   1.000
    O341    O    0.37296   0.65470   0.14256   1.000
    O342    O    0.81683   0.69428   0.12729   1.000
    O343    O    0.87310   0.65496   0.14264   1.000
    O344    O    0.31685   0.19431   0.12730   1.000
    O345    O    0.37311   0.15499   0.14264   1.000
    O346    O    0.31133   0.43381   0.12735   1.000
    O347    O    0.27007   0.48829   0.14261   1.000
    O348    O    0.81132   0.93379   0.12735   1.000
    O349    O    0.77006   0.98828   0.14261   1.000
    O350    O    0.31163   0.93383   0.12739   1.000
    O351    O    0.27055   0.98844   0.14275   1.000
    O352    O    0.81161   0.43382   0.12739   1.000
    O353    O    0.77054   0.48843   0.14275   1.000
    O354    O    0.75691   0.55197   0.18104   1.000
    O355    O    0.20126   0.34408   0.18715   1.000
    O356    O    0.70126   0.84407   0.18715   1.000
    O357    O    0.70162   0.34433   0.18731   1.000
    O358    O    0.20163   0.84433   0.18711   1.000
    O359    O    0.98648   0.84356   0.18741   1.000
    O360    O    0.98655   0.34315   0.18739   1.000
    O361    O    0.48655   0.84318   0.18735   1.000
    O362    O    0.48648   0.34358   0.18743   1.000
    O363    O    0.28892   0.85583   0.21010   1.000
    O364    O    0.78891   0.35583   0.21030   1.000
    O365    O    0.42201   0.35516   0.21037   1.000
    O366    O    0.36738   0.41976   0.24111   1.000
    O367    O    0.92201   0.85514   0.21037   1.000
    O368    O    0.73566   0.92803   0.23004   1.000
    O369    O    0.23567   0.42803   0.23004   1.000
    O370    O    0.59691   0.99134   0.22904   1.000
    O371    O    0.68451   0.00808   0.23858   1.000
    O372    O    0.09692   0.49133   0.22905   1.000
    O373    O    0.18452   0.50806   0.23858   1.000
    O374    O    0.59755   0.49134   0.22912   1.000
    O375    O    0.68533   0.50817   0.23876   1.000
    O376    O    0.09756   0.99134   0.22912   1.000
    O377    O    0.18533   0.00817   0.23872   1.000
    O378    O    0.13187   0.23766   0.22919   1.000
    O379    O    0.05371   0.23058   0.23876   1.000
    O380    O    0.63187   0.73767   0.22918   1.000
    O381    O    0.55371   0.73062   0.23877   1.000
    O382    O    0.13197   0.73785   0.22923   1.000
    O383    O    0.05380   0.73106   0.23885   1.000
    O384    O    0.63196   0.23787   0.22925   1.000
    O385    O    0.55380   0.23109   0.23885   1.000
    O386    O    0.81444   0.99196   0.26116   1.000
    O387    O    0.31526   0.99208   0.26130   1.000
    O388    O    0.26412   0.07208   0.26983   1.000
    O389    O    0.94627   0.26944   0.26121   1.000
    O390    O    0.44629   0.76948   0.26121   1.000
    O391    O    0.81525   0.49207   0.26134   1.000
    O392    O    0.76412   0.57208   0.26987   1.000
    O393    O    0.44637   0.26994   0.26133   1.000
    O394    O    0.94637   0.76992   0.26133   1.000
    O395    O    0.36806   0.76239   0.27071   1.000
    O396    O    0.86804   0.26239   0.27072   1.000
    O397    O    0.40223   0.50886   0.27055   1.000
    O398    O    0.86814   0.76256   0.27081   1.000
    O399    O    0.36815   0.26258   0.27081   1.000
    O400    O    0.90223   0.00885   0.27080   1.000
    O401    O    0.90287   0.50887   0.27088   1.000
    O402    O    0.40288   0.00888   0.27088   1.000
    O403    O    0.57792   0.64516   0.28960   1.000
    O404    O    0.51351   0.65681   0.31254   1.000
    O405    O    0.07793   0.14514   0.28961   1.000
    O406    O    0.00562   0.15678   0.31257   1.000
    O407    O    0.29826   0.65577   0.31260   1.000
    O408    O    0.79825   0.15578   0.31262   1.000
    O409    O    0.07781   0.64545   0.28966   1.000
    O410    O    0.00560   0.65725   0.31265   1.000
    O411    O    0.57780   0.14547   0.28966   1.000
    O412    O    0.51346   0.15728   0.31266   1.000
    O413    O    0.79860   0.65602   0.31277   1.000
    O414    O    0.29860   0.15602   0.31277   1.000
    O415    O    0.22941   0.51178   0.35721   1.000
    O416    O    0.72941   0.01180   0.35721   1.000
    O417    O    0.22987   0.01194   0.35735   1.000
    O418    O    0.72987   0.51196   0.35736   1.000
    O419    O    0.12697   0.34543   0.35743   1.000
    O420    O    0.62698   0.84546   0.35742   1.000
    O421    O    0.12715   0.84577   0.35751   1.000
    O422    O    0.62715   0.34581   0.35751   1.000
    O423    O    0.18840   0.56643   0.37259   1.000
    O424    O    0.68839   0.06646   0.37261   1.000
    O425    O    0.68868   0.56650   0.37265   1.000
    O426    O    0.18868   0.06648   0.37265   1.000
    O427    O    0.18318   0.80617   0.37276   1.000
    O428    O    0.68318   0.80604   0.37271   1.000
    O429    O    0.18318   0.30602   0.37273   1.000
    O430    O    0.68318   0.30620   0.37279   1.000
    O431    O    0.71840   0.02574   0.40829   1.000
    O432    O    0.21841   0.52571   0.40830   1.000
    O433    O    0.71872   0.52585   0.40839   1.000
    O434    O    0.21871   0.02584   0.40838   1.000
    O435    O    0.23657   0.06374   0.38833   1.000
    O436    O    0.68915   0.88263   0.40838   1.000
    O437    O    0.18914   0.38261   0.40837   1.000
    O438    O    0.18930   0.88279   0.40848   1.000
    O439    O    0.68930   0.38282   0.40846   1.000
    O440    O    0.71972   0.97008   0.44003   1.000
    O441    O    0.74406   0.05437   0.46997   1.000
    O442    O    0.21972   0.47006   0.44001   1.000
    O443    O    0.22564   0.41584   0.47001   1.000
    O444    O    0.24407   0.55434   0.46998   1.000
    O445    O    0.72564   0.91585   0.47004   1.000
    O446    O    0.71995   0.47022   0.44011   1.000
    O447    O    0.72581   0.41598   0.47009   1.000
    O448    O    0.21994   0.97020   0.44012   1.000
    O449    O    0.24430   0.05448   0.47006   1.000
    O450    O    0.74431   0.55450   0.47008   1.000
    O451    O    0.22581   0.91595   0.47011   1.000
    O452    O    0.26738   0.62821   0.49992   1.000
    O453    O    0.76736   0.12823   0.49993   1.000
    O454    O    0.27434   0.58440   0.52992   1.000
    O455    O    0.77433   0.08443   0.52993   1.000
    O456    O    0.26760   0.12834   0.50002   1.000
    O457    O    0.76761   0.62836   0.50002   1.000
    O458    O    0.73260   0.87204   0.50004   1.000
    O459    O    0.75589   0.94590   0.52998   1.000
    O460    O    0.23260   0.37203   0.50004   1.000
    O461    O    0.25588   0.44589   0.52998   1.000
    O462    O    0.27452   0.08452   0.53001   1.000
    O463    O    0.77453   0.58453   0.53002   1.000
    O464    O    0.73273   0.37215   0.50010   1.000
    O465    O    0.75604   0.44601   0.53004   1.000
    O466    O    0.23273   0.87213   0.50010   1.000
    O467    O    0.25604   0.94599   0.53005   1.000
    O468    O    0.78023   0.03019   0.55992   1.000
    O469    O    0.81083   0.11764   0.59157   1.000
    O470    O    0.28024   0.53018   0.55992   1.000
    O471    O    0.31084   0.61762   0.59157   1.000
    O472    O    0.78141   0.97452   0.59164   1.000
    O473    O    0.28142   0.47451   0.59164   1.000
    O474    O    0.28039   0.03027   0.56000   1.000
    O475    O    0.31095   0.11773   0.59165   1.000
    O476    O    0.78039   0.53029   0.56000   1.000
    O477    O    0.78158   0.47460   0.59171   1.000
    O478    O    0.81096   0.61774   0.59166   1.000
    O479    O    0.28158   0.97458   0.59171   1.000
    O480    O    0.81680   0.19423   0.62723   1.000
    O481    O    0.87297   0.15482   0.64257   1.000
    O482    O    0.31681   0.69421   0.62723   1.000
    O483    O    0.37298   0.65479   0.64257   1.000
    O484    O    0.81684   0.69430   0.62730   1.000
    O485    O    0.87308   0.65496   0.64266   1.000
    O486    O    0.31684   0.19430   0.62730   1.000
    O487    O    0.37307   0.15495   0.64265   1.000
    O488    O    0.81138   0.93383   0.62736   1.000
    O489    O    0.77014   0.98834   0.64264   1.000
    O490    O    0.31138   0.43382   0.62736   1.000
    O491    O    0.27015   0.48833   0.64264   1.000
    O492    O    0.81151   0.43386   0.62740   1.000
    O493    O    0.77036   0.48842   0.64272   1.000
    O494    O    0.31152   0.93384   0.62720   1.000
    O495    O    0.27036   0.98841   0.64272   1.000
    O496    O    0.70131   0.84412   0.68717   1.000
    O497    O    0.20131   0.34413   0.68717   1.000
    O498    O    0.70146   0.34423   0.68724   1.000
    O499    O    0.20147   0.84422   0.68724   1.000
    O500    O    0.48650   0.84333   0.68741   1.000
    O501    O    0.98650   0.34336   0.68741   1.000
    O502    O    0.48648   0.34352   0.68745   1.000
    O503    O    0.98649   0.84353   0.68745   1.000
    O504    O    0.92202   0.85514   0.71037   1.000
    O505    O    0.42208   0.85499   0.71035   1.000
    O506    O    0.92207   0.35502   0.71035   1.000
    O507    O    0.29123   0.34579   0.70511   1.000
    O508    O    0.73574   0.92807   0.73006   1.000
    O509    O    0.23575   0.42807   0.73003   1.000
    O510    O    0.73603   0.42814   0.73012   1.000
    O511    O    0.23604   0.92814   0.73016   1.000
    O512    O    0.49445   0.30271   0.73035   1.000
    O513    O    0.09699   0.49137   0.72905   1.000
    O514    O    0.18462   0.50810   0.73857   1.000
    O515    O    0.59698   0.99136   0.72902   1.000
    O516    O    0.68460   0.00810   0.73860   1.000
    O517    O    0.59726   0.49136   0.72909   1.000
    O518    O    0.68495   0.50813   0.73865   1.000
    O519    O    0.09727   0.99136   0.72909   1.000
    O520    O    0.18496   0.00814   0.73869   1.000
    O521    O    0.63188   0.73773   0.72919   1.000
    O522    O    0.55373   0.73079   0.73879   1.000
    O523    O    0.13189   0.23775   0.72920   1.000
    O524    O    0.05374   0.23082   0.73880   1.000
    O525    O    0.13194   0.73785   0.72924   1.000
    O526    O    0.05379   0.73104   0.73886   1.000
    O527    O    0.63192   0.23785   0.72924   1.000
    O528    O    0.55378   0.23103   0.73886   1.000
    O529    O    0.31454   0.49200   0.76115   1.000
    O530    O    0.81453   0.99200   0.76118   1.000
    O531    O    0.81488   0.49204   0.76123   1.000
    O532    O    0.31489   0.99203   0.76127   1.000
    O533    O    0.44630   0.76964   0.76127   1.000
    O534    O    0.94630   0.26968   0.76128   1.000
    O535    O    0.94635   0.76990   0.76134   1.000
    O536    O    0.44635   0.26989   0.76133   1.000
    O537    O    0.86806   0.26247   0.77076   1.000
    O538    O    0.36807   0.76245   0.77076   1.000
    O539    O    0.86811   0.76257   0.77081   1.000
    O540    O    0.36811   0.26256   0.77079   1.000
    O541    O    0.90229   0.00889   0.77080   1.000
    O542    O    0.40231   0.50888   0.77080   1.000
    O543    O    0.90257   0.50889   0.77086   1.000
    O544    O    0.40258   0.00888   0.77086   1.000
    O545    O    0.07786   0.14529   0.78962   1.000
    O546    O    0.00560   0.15700   0.81259   1.000
    O547    O    0.29830   0.65582   0.81261   1.000
    O548    O    0.57786   0.64527   0.78962   1.000
    O549    O    0.51346   0.65697   0.81259   1.000
    O550    O    0.71099   0.14435   0.78962   1.000
    O551    O    0.79829   0.15583   0.81263   1.000
    O552    O    0.51345   0.15720   0.81265   1.000
    O553    O    0.07782   0.64544   0.78966   1.000
    O554    O    0.00561   0.65721   0.81266   1.000
    O555    O    0.29845   0.15593   0.81271   1.000
    O556    O    0.79845   0.65592   0.81271   1.000
    O557    O    0.72947   0.01182   0.85723   1.000
    O558    O    0.22948   0.51184   0.85724   1.000
    O559    O    0.22969   0.01192   0.85732   1.000
    O560    O    0.72967   0.51191   0.85732   1.000
    O561    O    0.62700   0.84556   0.85740   1.000
    O562    O    0.12701   0.34559   0.85745   1.000
    O563    O    0.62711   0.34575   0.85752   1.000
    O564    O    0.12713   0.84577   0.85752   1.000
    O565    O    0.18846   0.56649   0.87262   1.000
    O566    O    0.68844   0.06648   0.87262   1.000
    O567    O    0.18858   0.06653   0.87266   1.000
    O568    O    0.68857   0.56650   0.87266   1.000
    O569    O    0.68315   0.80608   0.87271   1.000
    O570    O    0.18315   0.30611   0.87273   1.000
    O571    O    0.18319   0.80619   0.87279   1.000
    O572    O    0.68318   0.30618   0.87280   1.000
    O573    O    0.21847   0.52577   0.90832   1.000
    O574    O    0.71845   0.02576   0.90832   1.000
    O575    O    0.21863   0.02586   0.90839   1.000
    O576    O    0.71861   0.52583   0.90839   1.000
    O577    O    0.68916   0.88267   0.90835   1.000
    O578    O    0.18916   0.38270   0.90841   1.000
    O579    O    0.70165   0.37493   0.88841   1.000
    O580    O    0.18929   0.88281   0.90848   1.000
    O581    O    0.71975   0.97010   0.94002   1.000
    O582    O    0.72563   0.91584   0.97000   1.000
    O583    O    0.21976   0.47012   0.94005   1.000
    O584    O    0.24411   0.55439   0.96999   1.000
    O585    O    0.74409   0.05438   0.96999   1.000
    O586    O    0.22564   0.41587   0.97003   1.000
    O587    O    0.71990   0.47021   0.94013   1.000
    O588    O    0.21992   0.97023   0.94013   1.000
    O589    O    0.72581   0.41596   0.92007   1.000
    O590    O    0.22583   0.91597   0.97007   1.000
    O591    O    0.76740   0.12824   0.99994   1.000
    O592    O    0.26739   0.62825   0.99994   1.000
    O593    O    0.00562   0.19781   0.26975   1.000
    O594    O    0.00565   0.19811   0.76979   1.000
    O595    O    0.00569   0.69841   0.26985   1.000
    O596    O    0.00569   0.69838   0.76986   1.000
    O597    O    0.50569   0.19844   0.26985   1.000
    O598    O    0.57781   0.14543   0.78963   1.000
    O599    O    0.50567   0.19836   0.76986   1.000
    O600    O    0.50563   0.69786   0.26975   1.000
    O601    O    0.50564   0.69807   0.76978   1.000
    O602    O    0.13247   0.08043   0.25859   1.000
    O603    O    0.13227   0.08048   0.75857   1.000
    O604    O    0.13202   0.58049   0.25855   1.000
    O605    O    0.13208   0.58052   0.75855   1.000
    O606    O    0.63202   0.08051   0.25855   1.000
    O607    O    0.63207   0.08051   0.75852   1.000
    O608    O    0.63246   0.58043   0.25858   1.000
    O609    O    0.63226   0.58046   0.75857   1.000
    O610    O    0.15548   0.12127   0.32919   1.000
    O611    O    0.21424   0.09513   0.38432   1.000
    O612    O    0.15540   0.12134   0.82920   1.000
    O613    O    0.15528   0.62134   0.32918   1.000
    O614    O    0.15532   0.62137   0.82920   1.000
    O615    O    0.65527   0.12136   0.32920   1.000
    O616    O    0.65530   0.12137   0.82917   1.000
    O617    O    0.65548   0.62128   0.32918   1.000
    O618    O    0.65540   0.62133   0.82921   1.000
    O619    O    0.24878   0.49426   0.29383   1.000
    O620    O    0.24888   0.49431   0.79384   1.000
    O621    O    0.24953   0.99447   0.29402   1.000
    O622    O    0.25543   0.04059   0.36902   1.000
    O623    O    0.24920   0.99441   0.79398   1.000
    O624    O    0.74953   0.49448   0.29406   1.000
    O625    O    0.74919   0.49440   0.79394   1.000
    O626    O    0.74878   0.99426   0.29383   1.000
    O627    O    0.74887   0.99430   0.79386   1.000
    O628    O    0.21126   0.14433   0.28970   1.000
    O629    O    0.21113   0.14435   0.78968   1.000
    O630    O    0.26382   0.07201   0.76980   1.000
    O631    O    0.21097   0.64432   0.28963   1.000
    O632    O    0.26346   0.57189   0.26966   1.000
    O633    O    0.21100   0.64435   0.78963   1.000
    O634    O    0.26354   0.57193   0.76965   1.000
    O635    O    0.71096   0.14433   0.28965   1.000
    O636    O    0.76345   0.07190   0.26968   1.000
    O637    O    0.76352   0.07194   0.76970   1.000
    O638    O    0.71125   0.64433   0.28970   1.000
    O639    O    0.71112   0.64433   0.78968   1.000
    O640    O    0.76381   0.57200   0.76976   1.000
    O641    O    0.12601   0.17791   0.25862   1.000
    O642    O    0.12596   0.17801   0.75863   1.000
    O643    O    0.12592   0.67810   0.25866   1.000
    O644    O    0.12592   0.67811   0.75866   1.000
    O645    O    0.62591   0.17812   0.25866   1.000
    O646    O    0.62591   0.17810   0.75863   1.000
    O647    O    0.62600   0.67792   0.25862   1.000
    O648    O    0.62595   0.67799   0.75863   1.000
    O649    O    0.17298   0.20758   0.32923   1.000
    O650    O    0.17289   0.20765   0.82923   1.000
    O651    O    0.17283   0.70768   0.32923   1.000
    O652    O    0.17285   0.70770   0.82927   1.000
    O653    O    0.67282   0.20771   0.32926   1.000
    O654    O    0.67283   0.20770   0.82924   1.000
    O655    O    0.67297   0.70759   0.32922   1.000
    O656    O    0.67289   0.70763   0.82923   1.000
    O657    O    0.04446   0.29966   0.29407   1.000
    O658    O    0.04453   0.29994   0.79411   1.000
    O659    O    0.04468   0.80024   0.29417   1.000
    O660    O    0.04465   0.80022   0.79419   1.000
    O661    O    0.54467   0.30028   0.29417   1.000
    O662    O    0.54463   0.30020   0.79419   1.000
    O663    O    0.54448   0.79971   0.29408   1.000
    O664    O    0.54452   0.79991   0.79408   1.000
    O665    O    0.49446   0.30277   0.23033   1.000
    O666    O    0.42202   0.35513   0.71038   1.000
    O667    O    0.42214   0.85489   0.21030   1.000
    O668    O    0.49441   0.80223   0.23021   1.000
    O669    O    0.49442   0.80243   0.73028   1.000
    O670    O    0.92213   0.35487   0.21034   1.000
    O671    O    0.99440   0.30218   0.23025   1.000
    O672    O    0.99442   0.30247   0.73029   1.000
    O673    O    0.99446   0.80275   0.23033   1.000
    O674    O    0.99446   0.80272   0.73035   1.000
    O675    O    0.31444   0.49197   0.26091   1.000
    O676    O    0.36744   0.41977   0.74136   1.000
    O677    O    0.36783   0.91969   0.24140   1.000
    O678    O    0.36764   0.91972   0.74139   1.000
    O679    O    0.86783   0.41969   0.24140   1.000
    O680    O    0.86762   0.41973   0.74139   1.000
    O681    O    0.86738   0.91975   0.24136   1.000
    O682    O    0.86743   0.91977   0.74135   1.000
    O683    O    0.34446   0.37896   0.17079   1.000
    O684    O    0.34450   0.37897   0.67080   1.000
    O685    O    0.34468   0.87888   0.17078   1.000
    O686    O    0.34460   0.87893   0.67060   1.000
    O687    O    0.84467   0.37887   0.17079   1.000
    O688    O    0.84459   0.37894   0.67080   1.000
    O689    O    0.84446   0.87895   0.17079   1.000
    O690    O    0.84449   0.87897   0.67079   1.000
    O691    O    0.25102   0.00588   0.20604   1.000
    O692    O    0.25070   0.00580   0.70601   1.000
    O693    O    0.25026   0.50565   0.20585   1.000
    O694    O    0.25037   0.50570   0.70586   1.000
    O695    O    0.75026   0.00566   0.20585   1.000
    O696    O    0.75035   0.00571   0.70589   1.000
    O697    O    0.75102   0.50586   0.20608   1.000
    O698    O    0.75069   0.50580   0.70597   1.000
    O699    O    0.28861   0.35582   0.21024   1.000
    O700    O    0.28865   0.35584   0.71025   1.000
    O701    O    0.23634   0.92822   0.23000   1.000
    O702    O    0.28878   0.85583   0.71027   1.000
    O703    O    0.73634   0.42822   0.23024   1.000
    O704    O    0.78877   0.35584   0.71027   1.000
    O705    O    0.78861   0.85581   0.21024   1.000
    O706    O    0.78864   0.85583   0.71023   1.000
    O707    O    0.37392   0.32233   0.24137   1.000
    O708    O    0.37392   0.32231   0.74136   1.000
    O709    O    0.37402   0.82214   0.24130   1.000
    O710    O    0.37396   0.82221   0.74134   1.000
    O711    O    0.87401   0.32213   0.24130   1.000
    O712    O    0.87395   0.32222   0.74134   1.000
    O713    O    0.87392   0.82231   0.24137   1.000
    O714    O    0.87392   0.82232   0.74136   1.000
    O715    O    0.32695   0.29266   0.17075   1.000
    O716    O    0.32697   0.29266   0.67076   1.000
    O717    O    0.32709   0.79256   0.17071   1.000
    O718    O    0.32702   0.79259   0.67072   1.000
    O719    O    0.82709   0.29255   0.17072   1.000
    O720    O    0.82701   0.29261   0.67072   1.000
    O721    O    0.82695   0.79264   0.17075   1.000
    O722    O    0.82697   0.79266   0.67074   1.000
    O723    O    0.45566   0.20095   0.20605   1.000
    O724    O    0.45563   0.20089   0.70607   1.000
    O725    O    0.45549   0.70042   0.20595   1.000
    O726    O    0.45553   0.70061   0.70598   1.000
    O727    O    0.95547   0.20037   0.20595   1.000
    O728    O    0.95553   0.20065   0.70599   1.000
    O729    O    0.95566   0.70092   0.20605   1.000
    O730    O    0.95564   0.70090   0.70608   1.000
loop_
    _geom_bond_atom_site_label_1
    _geom_bond_atom_site_label_2
    _geom_bond_distance
    _geom_bond_site_symmetry_2
    _ccdc_geom_bond_type
    C106   O320      0.54511      .   S
    C186   O320      0.54511      .   S
    C170   O321      0.70248      .   S
    C152   O321      0.70248      .   S
    C170   O322      0.74981      .   S
    C162   O322      0.74981      .   S
    C170   O323      0.69878      .   S
    C178   O323      0.69878  1_556   S
    C172   O324      0.70259      .   S
    C158   O324      0.70259  1_565   S
    C172   O325      0.74975      .   S
    C164   O325      0.74975      .   S
    C172   O326      0.69878      .   S
    C180   O326      0.69878  1_556   S
    C158   O327      0.74980      .   S
    C150   O327      0.74980      .   S
    C158   O328      0.69869      .   S
    C190   O328      0.69869      .   S
    C152   O329      0.74981      .   S
    C144   O329      0.74981      .   S
    C152   O330      0.69869      .   S
    C184   O330      0.69869      .   S
    C174   O331      0.70252      .   S
    C156   O331      0.70252      .   S
    C174   O332      0.74987      .   S
    C166   O332      0.74987      .   S
    C168   O333      0.70262      .   S
    C154   O333      0.70262  1_565   S
    C168   O334      0.74992      .   S
    C160   O334      0.74992      .   S
    C154   O335      0.74982      .   S
    C146   O335      0.74982      .   S
    C154   O336      0.69933      .   S
    C186   O336      0.69933      .   S
    C156   O337      0.74982      .   S
    C148   O337      0.74982      .   S
    C164   O338      0.63667      .   S
    C308   O338      0.63667      .   S
    C164   O339      0.63756      .   S
    C316   O339      0.63756      .   S
    C162   O340      0.63668      .   S
    C306   O340      0.63668      .   S
    C162   O341      0.63750      .   S
    C314   O341      0.63750      .   S
    C166   O342      0.63677      .   S
    C310   O342      0.63677      .   S
    C166   O343      0.63746      .   S
    C318   O343      0.63746      .   S
    C160   O344      0.63677      .   S
    C304   O344      0.63677      .   S
    C160   O345      0.63739      .   S
    C312   O345      0.63739      .   S
    C144   O346      0.63662      .   S
    C272   O346      0.63662      .   S
    C144   O347      0.63755      .   S
    C282   O347      0.63755      .   S
    C150   O348      0.63662      .   S
    C278   O348      0.63662      .   S
    C150   O349      0.63761      .   S
    C284   O349      0.63761  1_545   S
    C146   O350      0.63665      .   S
    C274   O350      0.63665      .   S
    C146   O351      0.63759      .   S
    C280   O351      0.63759  1_545   S
    C148   O352      0.63666      .   S
    C276   O352      0.63666      .   S
    C148   O353      0.63749      .   S
    C286   O353      0.63749      .   S
    C286   O354      0.61869      .   S
    C182   O354      0.61869      .   S
    C80    O355      0.48793      .   S
    C288   O355      0.48793      .   S
    C86    O356      0.48793      .   S
    C294   O356      0.48793      .   S
    C84    O357      0.48791      .   S
    C292   O357      0.48791      .   S
    C82    O358      0.48444      .   S
    C290   O358      0.48444      .   S
    C66    O359      0.48840      .   S
    C262   O359      0.48840      .   S
    C64    O360      0.48792      .   S
    C260   O360      0.48792      .   S
    C70    O361      0.48704      .   S
    C258   O361      0.48704      .   S
    C68    O362      0.48794      .   S
    C256   O362      0.48794      .   S
    C290   O363      1.01149      .   S
    C10    O363      1.01149      .   S
    C12    O364      1.01278      .   S
    C292   O364      1.01278      .   S
    C8     O365      1.01349      .   S
    C256   O365      1.01349      .   S
    C8     O366      0.97960      .   S
    C264   O366      0.97960      .   S
    C14    O367      1.01348      .   S
    C262   O367      1.01348      .   S
    C294   O368      1.02320      .   S
    C28    O368      1.02320      .   S
    C288   O369      1.02308      .   S
    C26    O369      1.02308      .   S
    C204   O370      0.49586  1_545   S
    C46    O370      0.49586      .   S
    C204   O371      0.97905      .   S
    C28    O371      0.97905  1_565   S
    C202   O372      0.49585      .   S
    C40    O372      0.49585      .   S
    C202   O373      0.97904      .   S
    C26    O373      0.97904      .   S
    C206   O374      0.49576      .   S
    C44    O374      0.49576      .   S
    C206   O375      0.98023      .   S
    C30    O375      0.98023      .   S
    C200   O376      0.49579  1_545   S
    C42    O376      0.49579      .   S
    C200   O377      0.98019      .   S
    C24    O377      0.98019      .   S
    C232   O378      0.49568      .   S
    C56    O378      0.49568      .   S
    C232   O379      0.97944      .   S
    C16    O379      0.97944      .   S
    C238   O380      0.49569      .   S
    C62    O380      0.49569      .   S
    C238   O381      0.97947      .   S
    C22    O381      0.97947      .   S
    C234   O382      0.49580      .   S
    C58    O382      0.49580      .   S
    C234   O383      0.97974      .   S
    C18    O383      0.97974      .   S
    C236   O384      0.49563      .   S
    C60    O384      0.49563      .   S
    C236   O385      0.97974      .   S
    C20    O385      0.97974      .   S
    C28    O386      0.98062      .   S
    C270   O386      0.98062      .   S
    C24    O387      0.97947  1_545   S
    C266   O387      0.97947      .   S
    C24    O388      1.02343      .   S
    C224   O388      1.02343      .   S
    C16    O389      0.97930  1_455   S
    C300   O389      0.97930      .   S
    C22    O390      0.97918      .   S
    C298   O390      0.97918      .   S
    C30    O391      0.97938      .   S
    C268   O391      0.97938      .   S
    C30    O392      1.02340      .   S
    C230   O392      1.02340      .   S
    C20    O393      0.97917      .   S
    C296   O393      0.97917      .   S
    C18    O394      0.97927  1_455   S
    C302   O394      0.97927      .   S
    C90    O395      0.49590      .   S
    C298   O395      0.49590      .   S
    C92    O396      0.49591      .   S
    C300   O396      0.49591      .   S
    C74    O397      0.49293      .   S
    C264   O397      0.49293      .   S
    C94    O398      0.49567      .   S
    C302   O398      0.49567      .   S
    C88    O399      0.49567      .   S
    C296   O399      0.49567      .   S
    C76    O400      0.49578      .   S
    C270   O400      0.49578  1_565   S
    C78    O401      0.49578      .   S
    C268   O401      0.49578      .   S
    C72    O402      0.49582      .   S
    C266   O402      0.49582  1_565   S
    C198   O403      1.01318      .   S
    C6     O403      1.01318      .   S
    C198   O404      0.48717      .   S
    C34    O404      0.48717      .   S
    C192   O405      1.01320      .   S
    C0     O405      1.01320      .   S
    C192   O406      0.53459      .   S
    C36    O406      0.53459      .   S
    C226   O407      0.48816      .   S
    C50    O407      0.48816      .   S
    C228   O408      0.48789      .   S
    C52    O408      0.48789      .   S
    C194   O409      1.01254      .   S
    C2     O409      1.01254      .   S
    C194   O410      0.53434      .   S
    C38    O410      0.53434      .   S
    C196   O411      1.01255      .   S
    C4     O411      1.01255      .   S
    C196   O412      0.48785      .   S
    C32    O412      0.48785      .   S
    C230   O413      0.48790      .   S
    C54    O413      0.48790      .   S
    C224   O414      0.48791      .   S
    C48    O414      0.48791      .   S
    C216   O415      0.63757      .   S
    C114   O415      0.63757      .   S
    C222   O416      0.63759  1_565   S
    C116   O416      0.63759      .   S
    C218   O417      0.63765  1_565   S
    C112   O417      0.63765      .   S
    C220   O418      0.63751      .   S
    C118   O418      0.63751      .   S
    C248   O419      0.63756      .   S
    C128   O419      0.63756      .   S
    C254   O420      0.63736      .   S
    C134   O420      0.63736      .   S
    C250   O421      0.63771      .   S
    C130   O421      0.63771      .   S
    C252   O422      0.63773      .   S
    C132   O422      0.63773      .   S
    C210   O423      0.63674      .   S
    C114   O423      0.63674      .   S
    C212   O424      0.63665      .   S
    C116   O424      0.63665      .   S
    C214   O425      0.63662      .   S
    C118   O425      0.63662      .   S
    C208   O426      0.63662      .   S
    C112   O426      0.63662      .   S
    C242   O427      0.63657      .   S
    C130   O427      0.63657      .   S
    C246   O428      0.63660      .   S
    C134   O428      0.63660      .   S
    C240   O429      0.63663      .   S
    C128   O429      0.63663      .   S
    C244   O430      0.63655      .   S
    C132   O430      0.63655      .   S
    C116   O431      0.74958      .   S
    C124   O431      0.74958      .   S
    C114   O432      0.74982      .   S
    C122   O432      0.74982      .   S
    C118   O433      0.74987      .   S
    C126   O433      0.74987      .   S
    C112   O434      0.74966      .   S
    C120   O434      0.74966      .   S
    C112   O435      0.48903      .   S
    C176   O435      0.48903      .   S
    C134   O436      0.75018      .   S
    C142   O436      0.75018      .   S
    C128   O437      0.74957      .   S
    C136   O437      0.74957      .   S
    C130   O438      0.74970      .   S
    C138   O438      0.74970      .   S
    C132   O439      0.74944      .   S
    C140   O439      0.74944      .   S
    C124   O440      0.70275  1_545   S
    C142   O440      0.70275      .   S
    C124   O441      0.69896      .   S
    C181   O441      0.69896      .   S
    C136   O442      0.70233      .   S
    C122   O442      0.70233      .   S
    C136   O443      0.69934      .   S
    C185   O443      0.69934      .   S
    C122   O444      0.69876      .   S
    C179   O444      0.69876      .   S
    C142   O445      0.69872      .   S
    C191   O445      0.69872      .   S
    C140   O446      0.70231      .   S
    C126   O446      0.70231      .   S
    C140   O447      0.69916      .   S
    C189   O447      0.69916      .   S
    C120   O448      0.70264  1_545   S
    C138   O448      0.70264      .   S
    C120   O449      0.69878      .   S
    C177   O449      0.69878      .   S
    C126   O450      0.69871      .   S
    C183   O450      0.69871      .   S
    C138   O451      0.69873      .   S
    C187   O451      0.69873      .   S
    C99    O452      0.54480      .   S
    C179   O452      0.54480      .   S
    C101   O453      0.54481      .   S
    C181   O453      0.54481      .   S
    C179   O454      0.69880      .   S
    C171   O454      0.69880      .   S
    C181   O455      0.69871      .   S
    C173   O455      0.69871      .   S
    C97    O456      0.54477      .   S
    C177   O456      0.54477      .   S
    C103   O457      0.54482      .   S
    C183   O457      0.54482      .   S
    C191   O458      0.54481      .   S
    C111   O458      0.54481      .   S
    C191   O459      0.69876      .   S
    C159   O459      0.69876      .   S
    C185   O460      0.54480      .   S
    C105   O460      0.54480      .   S
    C185   O461      0.69877      .   S
    C153   O461      0.69877      .   S
    C177   O462      0.69879      .   S
    C169   O462      0.69879      .   S
    C183   O463      0.69880      .   S
    C175   O463      0.69880      .   S
    C189   O464      0.54480      .   S
    C109   O464      0.54480      .   S
    C189   O465      0.69865      .   S
    C157   O465      0.69865      .   S
    C187   O466      0.54480      .   S
    C107   O466      0.54480      .   S
    C187   O467      0.69873      .   S
    C155   O467      0.69873      .   S
    C173   O468      0.70263      .   S
    C159   O468      0.70263  1_565   S
    C173   O469      0.74991      .   S
    C165   O469      0.74991      .   S
    C171   O470      0.70252      .   S
    C153   O470      0.70252      .   S
    C171   O471      0.74992      .   S
    C163   O471      0.74992      .   S
    C159   O472      0.74982      .   S
    C151   O472      0.74982      .   S
    C153   O473      0.74980      .   S
    C145   O473      0.74980      .   S
    C169   O474      0.70262      .   S
    C155   O474      0.70262  1_565   S
    C169   O475      0.74992      .   S
    C161   O475      0.74992      .   S
    C157   O476      0.70244      .   S
    C175   O476      0.70244      .   S
    C157   O477      0.74994      .   S
    C149   O477      0.74994      .   S
    C175   O478      0.74984      .   S
    C167   O478      0.74984      .   S
    C155   O479      0.74982      .   S
    C147   O479      0.74982      .   S
    C165   O480      0.63673      .   S
    C309   O480      0.63673      .   S
    C165   O481      0.63749      .   S
    C317   O481      0.63749      .   S
    C163   O482      0.63673      .   S
    C307   O482      0.63673      .   S
    C163   O483      0.63749      .   S
    C315   O483      0.63749      .   S
    C167   O484      0.63677      .   S
    C311   O484      0.63677      .   S
    C167   O485      0.63744      .   S
    C319   O485      0.63744      .   S
    C161   O486      0.63676      .   S
    C305   O486      0.63676      .   S
    C161   O487      0.63741      .   S
    C313   O487      0.63741      .   S
    C151   O488      0.63662      .   S
    C279   O488      0.63662      .   S
    C151   O489      0.63764      .   S
    C285   O489      0.63764  1_545   S
    C145   O490      0.63662      .   S
    C273   O490      0.63662      .   S
    C145   O491      0.63754      .   S
    C283   O491      0.63754      .   S
    C149   O492      0.63666      .   S
    C277   O492      0.63666      .   S
    C149   O493      0.63754      .   S
    C287   O493      0.63754      .   S
    C147   O494      0.63572      .   S
    C275   O494      0.63572      .   S
    C147   O495      0.63760      .   S
    C281   O495      0.63760  1_545   S
    C87    O496      0.48786      .   S
    C295   O496      0.48786      .   S
    C81    O497      0.48786      .   S
    C289   O497      0.48786      .   S
    C85    O498      0.48789      .   S
    C293   O498      0.48789      .   S
    C83    O499      0.48789      .   S
    C291   O499      0.48789      .   S
    C71    O500      0.48785      .   S
    C259   O500      0.48785      .   S
    C65    O501      0.48788      .   S
    C261   O501      0.48788      .   S
    C69    O502      0.48786      .   S
    C257   O502      0.48786      .   S
    C67    O503      0.48789      .   S
    C263   O503      0.48789      .   S
    C15    O504      1.01329      .   S
    C263   O504      1.01329      .   S
    C11    O505      1.01304      .   S
    C259   O505      1.01304      .   S
    C13    O506      1.01307      .   S
    C261   O506      1.01307      .   S
    C9     O507      0.93201      .   S
    C104   O507      0.93201      .   S
    C295   O508      1.02320      .   S
    C29    O508      1.02320      .   S
    C289   O509      1.02306      .   S
    C27    O509      1.02306      .   S
    C293   O510      1.02318      .   S
    C31    O510      1.02318      .   S
    C291   O511      1.02337      .   S
    C25    O511      1.02337  1_545   S
    C257   O512      1.02252      .   S
    C21    O512      1.02252      .   S
    C203   O513      0.49583      .   S
    C41    O513      0.49583      .   S
    C203   O514      0.97912      .   S
    C27    O514      0.97912      .   S
    C205   O515      0.49557  1_545   S
    C47    O515      0.49557      .   S
    C205   O516      0.97910      .   S
    C29    O516      0.97910  1_565   S
    C207   O517      0.49581      .   S
    C45    O517      0.49581      .   S
    C207   O518      0.97960      .   S
    C31    O518      0.97960      .   S
    C201   O519      0.49587  1_545   S
    C43    O519      0.49587      .   S
    C201   O520      0.97962      .   S
    C25    O520      0.97962      .   S
    C239   O521      0.49566      .   S
    C63    O521      0.49566      .   S
    C239   O522      0.97957      .   S
    C23    O522      0.97957      .   S
    C233   O523      0.49569      .   S
    C57    O523      0.49569      .   S
    C233   O524      0.97956      .   S
    C17    O524      0.97956      .   S
    C235   O525      0.49564      .   S
    C59    O525      0.49564      .   S
    C235   O526      0.97971      .   S
    C19    O526      0.97971      .   S
    C237   O527      0.49563      .   S
    C61    O527      0.49563      .   S
    C237   O528      0.97972      .   S
    C21    O528      0.97972      .   S
    C27    O529      0.98047      .   S
    C265   O529      0.98047      .   S
    C29    O530      0.98056      .   S
    C271   O530      0.98056      .   S
    C31    O531      0.97999      .   S
    C269   O531      0.97999      .   S
    C25    O532      0.98008  1_545   S
    C267   O532      0.98008      .   S
    C23    O533      0.97939      .   S
    C299   O533      0.97939      .   S
    C17    O534      0.97946  1_455   S
    C301   O534      0.97946      .   S
    C19    O535      0.97935  1_455   S
    C303   O535      0.97935      .   S
    C21    O536      0.97911      .   S
    C297   O536      0.97911      .   S
    C93    O537      0.49565      .   S
    C301   O537      0.49565      .   S
    C91    O538      0.49563      .   S
    C299   O538      0.49563      .   S
    C95    O539      0.49566      .   S
    C303   O539      0.49566      .   S
    C89    O540      0.49578      .   S
    C297   O540      0.49578      .   S
    C77    O541      0.49578      .   S
    C271   O541      0.49578  1_565   S
    C75    O542      0.49565      .   S
    C265   O542      0.49565      .   S
    C79    O543      0.49577      .   S
    C269   O543      0.49577      .   S
    C73    O544      0.49581      .   S
    C267   O544      0.49581  1_565   S
    C193   O545      1.01292      .   S
    C1     O545      1.01292      .   S
    C193   O546      0.53446      .   S
    C37    O546      0.53446      .   S
    C227   O547      0.48839      .   S
    C51    O547      0.48839      .   S
    C199   O548      1.01291      .   S
    C7     O548      1.01291      .   S
    C199   O549      0.48796      .   S
    C35    O549      0.48796      .   S
    C229   O550      1.01266      .   S
    C5     O550      1.01266      .   S
    C229   O551      0.48787      .   S
    C53    O551      0.48787      .   S
    C197   O552      0.48794      .   S
    C33    O552      0.48794      .   S
    C195   O553      1.01265      .   S
    C3     O553      1.01265      .   S
    C195   O554      0.53436      .   S
    C39    O554      0.53436      .   S
    C225   O555      0.48783      .   S
    C49    O555      0.48783      .   S
    C231   O556      0.48784      .   S
    C55    O556      0.48784      .   S
    C223   O557      0.63768  1_565   S
    C117   O557      0.63768      .   S
    C217   O558      0.63754      .   S
    C115   O558      0.63754      .   S
    C219   O559      0.63767  1_565   S
    C113   O559      0.63767      .   S
    C221   O560      0.63758      .   S
    C119   O560      0.63758      .   S
    C255   O561      0.63763      .   S
    C135   O561      0.63763      .   S
    C249   O562      0.63768      .   S
    C129   O562      0.63768      .   S
    C253   O563      0.63769      .   S
    C133   O563      0.63769      .   S
    C251   O564      0.63770      .   S
    C131   O564      0.63770      .   S
    C211   O565      0.63666      .   S
    C115   O565      0.63666      .   S
    C213   O566      0.63666      .   S
    C117   O566      0.63666      .   S
    C209   O567      0.63662      .   S
    C113   O567      0.63662      .   S
    C215   O568      0.63663      .   S
    C119   O568      0.63663      .   S
    C247   O569      0.63656      .   S
    C135   O569      0.63656      .   S
    C241   O570      0.63656      .   S
    C129   O570      0.63656      .   S
    C243   O571      0.63654      .   S
    C131   O571      0.63654      .   S
    C245   O572      0.63655      .   S
    C133   O572      0.63655      .   S
    C115   O573      0.74978      .   S
    C123   O573      0.74978      .   S
    C117   O574      0.74980      .   S
    C125   O574      0.74980      .   S
    C113   O575      0.74987      .   S
    C121   O575      0.74987      .   S
    C119   O576      0.74989      .   S
    C127   O576      0.74989      .   S
    C135   O577      0.74963      .   S
    C143   O577      0.74963      .   S
    C129   O578      0.74975      .   S
    C137   O578      0.74975      .   S
    C133   O579      0.62902      .   S
    C188   O579      0.62902      .   S
    C131   O580      0.74978      .   S
    C139   O580      0.74978      .   S
    C143   O581      0.70237      .   S
    C125   O581      0.70237  1_545   S
    C143   O582      0.69933      .   S
    C190   O582      0.69933  1_554   S
    C123   O583      0.70252      .   S
    C137   O583      0.70252      .   S
    C123   O584      0.69860      .   S
    C178   O584      0.69860      .   S
    C125   O585      0.69859      .   S
    C180   O585      0.69859      .   S
    C137   O586      0.69858      .   S
    C184   O586      0.69858  1_554   S
    C127   O587      0.70250      .   S
    C141   O587      0.70250      .   S
    C121   O588      0.70261  1_545   S
    C139   O588      0.70261      .   S
    C141   O589      0.52790      .   S
    C188   O589      0.52790      .   S
    C139   O590      0.69769      .   S
    C186   O590      0.69769  1_554   S
    C100   O591      0.54478      .   S
    C180   O591      0.54478      .   S
    C98    O592      0.54477      .   S
    C178   O592      0.54477      .   S
    C192   O593      1.02326      .   S
    C16    O593      1.02326      .   S
    C193   O594      1.02381      .   S
    C17    O594      1.02381      .   S
    C194   O595      1.02436      .   S
    C18    O595      1.02436      .   S
    C195   O596      1.02430      .   S
    C19    O596      1.02430      .   S
    C196   O597      1.02445      .   S
    C20    O597      1.02445      .   S
    C197   O598      1.01284      .   S
    C5     O598      1.01284      .   S
    C197   O599      1.02422      .   S
    C21    O599      1.02422      .   S
    C198   O600      1.02342      .   S
    C22    O600      1.02342      .   S
    C199   O601      1.02377      .   S
    C23    O601      1.02377      .   S
    C200   O602      0.98156      .   S
    C0     O602      0.98156      .   S
    C201   O603      0.98173      .   S
    C1     O603      0.98173      .   S
    C202   O604      0.98216      .   S
    C2     O604      0.98216      .   S
    C203   O605      0.98205      .   S
    C3     O605      0.98205      .   S
    C204   O606      0.98215      .   S
    C4     O606      0.98215      .   S
    C205   O607      0.98179      .   S
    C5     O607      0.98179      .   S
    C206   O608      0.98154      .   S
    C6     O608      0.98154      .   S
    C207   O609      0.98176      .   S
    C7     O609      0.98176      .   S
    C208   O610      1.03275      .   S
    C0     O610      1.03275      .   S
    C208   O611      0.72428      .   S
    C176   O611      0.72428      .   S
    C209   O612      1.03302      .   S
    C1     O612      1.03302      .   S
    C210   O613      1.03263      .   S
    C2     O613      1.03263      .   S
    C211   O614      1.03292      .   S
    C3     O614      1.03292      .   S
    C212   O615      1.03299      .   S
    C4     O615      1.03299      .   S
    C213   O616      1.03361      .   S
    C5     O616      1.03361      .   S
    C214   O617      1.03278      .   S
    C6     O617      1.03278      .   S
    C215   O618      1.03296      .   S
    C7     O618      1.03296      .   S
    C216   O619      1.02508      .   S
    C26    O619      1.02508      .   S
    C217   O620      1.02575      .   S
    C27    O620      1.02575      .   S
    C218   O621      1.02618      .   S
    C24    O621      1.02618  1_545   S
    C218   O622      0.85940  1_565   S
    C176   O622      0.85940      .   S
    C219   O623      1.02518      .   S
    C25    O623      1.02518  1_545   S
    C220   O624      1.02532      .   S
    C30    O624      1.02532      .   S
    C221   O625      1.02609      .   S
    C31    O625      1.02609      .   S
    C222   O626      1.02520      .   S
    C28    O626      1.02520      .   S
    C223   O627      1.02512      .   S
    C29    O627      1.02512      .   S
    C224   O628      1.01342      .   S
    C0     O628      1.01342      .   S
    C225   O629      1.01313      .   S
    C1     O629      1.01313      .   S
    C225   O630      1.02359      .   S
    C25    O630      1.02359      .   S
    C226   O631      1.01284      .   S
    C2     O631      1.01284      .   S
    C226   O632      1.02371      .   S
    C26    O632      1.02371      .   S
    C227   O633      1.01305      .   S
    C3     O633      1.01305      .   S
    C227   O634      1.02374      .   S
    C27    O634      1.02374      .   S
    C228   O635      1.01275      .   S
    C4     O635      1.01275      .   S
    C228   O636      1.02375      .   S
    C28    O636      1.02375  1_565   S
    C229   O637      1.02373      .   S
    C29    O637      1.02373  1_565   S
    C230   O638      1.01343      .   S
    C6     O638      1.01343      .   S
    C231   O639      1.01313      .   S
    C7     O639      1.01313      .   S
    C231   O640      1.02363      .   S
    C31    O640      1.02363      .   S
    C232   O641      0.98255      .   S
    C0     O641      0.98255      .   S
    C233   O642      0.98259      .   S
    C1     O642      0.98259      .   S
    C234   O643      0.98272      .   S
    C2     O643      0.98272      .   S
    C235   O644      0.98271      .   S
    C3     O644      0.98271      .   S
    C236   O645      0.98274      .   S
    C4     O645      0.98274      .   S
    C237   O646      0.98215      .   S
    C5     O646      0.98215      .   S
    C238   O647      0.98255      .   S
    C6     O647      0.98255      .   S
    C239   O648      0.98272      .   S
    C7     O648      0.98272      .   S
    C240   O649      1.03353      .   S
    C0     O649      1.03353      .   S
    C241   O650      1.03347      .   S
    C1     O650      1.03347      .   S
    C242   O651      1.03316      .   S
    C2     O651      1.03316      .   S
    C243   O652      1.03361      .   S
    C3     O652      1.03361      .   S
    C244   O653      1.03357      .   S
    C4     O653      1.03357      .   S
    C245   O654      1.03393      .   S
    C5     O654      1.03393      .   S
    C246   O655      1.03364      .   S
    C6     O655      1.03364      .   S
    C247   O656      1.03339      .   S
    C7     O656      1.03339      .   S
    C248   O657      1.02561      .   S
    C16    O657      1.02561      .   S
    C249   O658      1.02490      .   S
    C17    O658      1.02490      .   S
    C250   O659      1.02480      .   S
    C18    O659      1.02480      .   S
    C251   O660      1.02479      .   S
    C19    O660      1.02479      .   S
    C252   O661      1.02481      .   S
    C20    O661      1.02481      .   S
    C253   O662      1.02478      .   S
    C21    O662      1.02478      .   S
    C254   O663      1.02550      .   S
    C22    O663      1.02550      .   S
    C255   O664      1.02469      .   S
    C23    O664      1.02469      .   S
    C256   O665      1.02230      .   S
    C20    O665      1.02230      .   S
    C257   O666      1.01338      .   S
    C9     O666      1.01338      .   S
    C258   O667      1.01309      .   S
    C10    O667      1.01309      .   S
    C258   O668      1.02407      .   S
    C22    O668      1.02407      .   S
    C259   O669      1.02304      .   S
    C23    O669      1.02304      .   S
    C260   O670      1.01280      .   S
    C12    O670      1.01280      .   S
    C260   O671      1.02364      .   S
    C16    O671      1.02364  1_455   S
    C261   O672      1.02302      .   S
    C17    O672      1.02302  1_455   S
    C262   O673      1.02237      .   S
    C18    O673      1.02237  1_455   S
    C263   O674      1.02247      .   S
    C19    O674      1.02247  1_455   S
    C264   O675      0.98051      .   S
    C26    O675      0.98051      .   S
    C265   O676      0.98167      .   S
    C9     O676      0.98167      .   S
    C266   O677      0.98223      .   S
    C10    O677      0.98223      .   S
    C267   O678      0.98206      .   S
    C11    O678      0.98206      .   S
    C268   O679      0.98221      .   S
    C12    O679      0.98221      .   S
    C269   O680      0.98205      .   S
    C13    O680      0.98205      .   S
    C270   O681      0.98165      .   S
    C14    O681      0.98165      .   S
    C271   O682      0.98184      .   S
    C15    O682      0.98184      .   S
    C272   O683      1.03276      .   S
    C8     O683      1.03276      .   S
    C273   O684      1.03286      .   S
    C9     O684      1.03286      .   S
    C274   O685      1.03299      .   S
    C10    O685      1.03299      .   S
    C275   O686      1.03686      .   S
    C11    O686      1.03686      .   S
    C276   O687      1.03304      .   S
    C12    O687      1.03304      .   S
    C277   O688      1.03275      .   S
    C13    O688      1.03275      .   S
    C278   O689      1.03274      .   S
    C14    O689      1.03274      .   S
    C279   O690      1.03259      .   S
    C15    O690      1.03259      .   S
    C280   O691      1.02443      .   S
    C24    O691      1.02443      .   S
    C281   O692      1.02531      .   S
    C25    O692      1.02531      .   S
    C282   O693      1.02548      .   S
    C26    O693      1.02548      .   S
    C283   O694      1.02480      .   S
    C27    O694      1.02480      .   S
    C284   O695      1.02545      .   S
    C28    O695      1.02545  1_565   S
    C285   O696      1.02539      .   S
    C29    O696      1.02539  1_565   S
    C286   O697      1.02530      .   S
    C30    O697      1.02530      .   S
    C287   O698      1.02445      .   S
    C31    O698      1.02445      .   S
    C288   O699      1.01351      .   S
    C8     O699      1.01351      .   S
    C289   O700      1.01336      .   S
    C9     O700      1.01336      .   S
    C290   O701      1.02374      .   S
    C24    O701      1.02374  1_545   S
    C291   O702      1.01309      .   S
    C11    O702      1.01309      .   S
    C292   O703      1.02342      .   S
    C30    O703      1.02342      .   S
    C293   O704      1.01308      .   S
    C13    O704      1.01308      .   S
    C294   O705      1.01353      .   S
    C14    O705      1.01353      .   S
    C295   O706      1.01345      .   S
    C15    O706      1.01345      .   S
    C296   O707      0.98253      .   S
    C8     O707      0.98253      .   S
    C297   O708      0.98234      .   S
    C9     O708      0.98234      .   S
    C298   O709      0.98216      .   S
    C10    O709      0.98216      .   S
    C299   O710      0.98268      .   S
    C11    O710      0.98268      .   S
    C300   O711      0.98213      .   S
    C12    O711      0.98213      .   S
    C301   O712      0.98265      .   S
    C13    O712      0.98265      .   S
    C302   O713      0.98256      .   S
    C14    O713      0.98256      .   S
    C303   O714      0.98284      .   S
    C15    O714      0.98284      .   S
    C304   O715      1.03268      .   S
    C8     O715      1.03268      .   S
    C305   O716      1.03269      .   S
    C9     O716      1.03269      .   S
    C306   O717      1.03268      .   S
    C10    O717      1.03268      .   S
    C307   O718      1.03290      .   S
    C11    O718      1.03290      .   S
    C308   O719      1.03280      .   S
    C12    O719      1.03280      .   S
    C309   O720      1.03285      .   S
    C13    O720      1.03285      .   S
    C310   O721      1.03272      .   S
    C14    O721      1.03272      .   S
    C311   O722      1.03249      .   S
    C15    O722      1.03249      .   S
    C312   O723      1.02691      .   S
    C20    O723      1.02691      .   S
    C313   O724      1.02689      .   S
    C21    O724      1.02689      .   S
    C314   O725      1.02609      .   S
    C22    O725      1.02609      .   S
    C315   O726      1.02658      .   S
    C23    O726      1.02658      .   S
    C316   O727      1.02596      .   S
    C16    O727      1.02596  1_455   S
    C317   O728      1.02671      .   S
    C17    O728      1.02671  1_455   S
    C318   O729      1.02692      .   S
    C18    O729      1.02692  1_455   S
    C319   O730      1.02688      .   S
    C19    O730      1.02688  1_455   S
