# CIF file generated by openbabel 2.4.90, see http://openbabel.sf.net
data_I
_chemical_name_common ''
_cell_length_a 15.191
_cell_length_b 15.284
_cell_length_c 22.58
_cell_angle_alpha 107.064
_cell_angle_beta 106.784
_cell_angle_gamma 97.779
_space_group_name_H-M_alt 'P 1'
_space_group_name_Hall 'P 1'
loop_
    _symmetry_equiv_pos_as_xyz
    x,y,z
loop_
    _atom_site_label
    _atom_site_type_symbol
    _atom_site_fract_x
    _atom_site_fract_y
    _atom_site_fract_z
    _atom_site_occupancy
    Zr0     Zr   0.14461   0.14466   0.28974   1.000
    Zr1     Zr   0.14451   0.14474   0.78974   1.000
    Zr2     Zr   0.14441   0.64479   0.28976   1.000
    Zr3     Zr   0.14443   0.64480   0.78976   1.000
    Zr4     Zr   0.64440   0.14480   0.28976   1.000
    Zr5     Zr   0.64442   0.14480   0.78970   1.000
    Zr6     Zr   0.64460   0.64466   0.28973   1.000
    Zr7     Zr   0.64451   0.64472   0.78975   1.000
    Zr8     Zr   0.35528   0.35551   0.21022   1.000
    Zr9     Zr   0.35530   0.35551   0.71023   1.000
    Zr10    Zr   0.35548   0.85539   0.21020   1.000
    Zr11    Zr   0.35539   0.85544   0.71021   1.000
    Zr12    Zr   0.85548   0.35539   0.21021   1.000
    Zr13    Zr   0.85538   0.35546   0.71021   1.000
    Zr14    Zr   0.85527   0.85550   0.21022   1.000
    Zr15    Zr   0.85530   0.85551   0.71020   1.000
    Zr16    Zr   0.00000   0.25000   0.25002   1.000
    Zr17    Zr   0.00008   0.25036   0.75008   1.000
    Zr18    Zr   0.00018   0.75070   0.25014   1.000
    Zr19    Zr   0.00017   0.75067   0.75016   1.000
    Zr20    Zr   0.50018   0.25074   0.25014   1.000
    Zr21    Zr   0.50015   0.25066   0.75016   1.000
    Zr22    Zr   0.50002   0.75007   0.25003   1.000
    Zr23    Zr   0.50007   0.75032   0.75007   1.000
    Zr24    Zr   0.25033   0.00016   0.25000   1.000
    Zr25    Zr   0.24990   0.00007   0.74998   1.000
    Zr26    Zr   0.24940   0.49993   0.24982   1.000
    Zr27    Zr   0.24950   0.49997   0.74980   1.000
    Zr28    Zr   0.74939   0.99993   0.24982   1.000
    Zr29    Zr   0.74949   0.99998   0.74985   1.000
    Zr30    Zr   0.75033   0.50015   0.25008   1.000
    Zr31    Zr   0.74989   0.50006   0.74990   1.000
    Zr32    Zr   0.51571   0.16842   0.33575   1.000
    Zr33    Zr   0.51571   0.16833   0.83575   1.000
    Zr34    Zr   0.51577   0.66797   0.33560   1.000
    Zr35    Zr   0.51572   0.66812   0.83569   1.000
    Zr36    Zr   0.00000   0.16795   0.33567   1.000
    Zr37    Zr   0.00000   0.16814   0.83569   1.000
    Zr38    Zr   0.00000   0.66839   0.33574   1.000
    Zr39    Zr   0.00000   0.66835   0.83575   1.000
    Zr40    Zr   0.07421   0.46645   0.23076   1.000
    Zr41    Zr   0.07426   0.46651   0.73075   1.000
    Zr42    Zr   0.07480   0.96648   0.23081   1.000
    Zr43    Zr   0.07451   0.96651   0.73079   1.000
    Zr44    Zr   0.57478   0.46650   0.23081   1.000
    Zr45    Zr   0.57450   0.46651   0.73079   1.000
    Zr46    Zr   0.57420   0.96646   0.23075   1.000
    Zr47    Zr   0.57425   0.96649   0.73070   1.000
    Zr48    Zr   0.31929   0.16804   0.33587   1.000
    Zr49    Zr   0.31916   0.16791   0.83580   1.000
    Zr50    Zr   0.31900   0.66769   0.33570   1.000
    Zr51    Zr   0.31904   0.66775   0.83573   1.000
    Zr52    Zr   0.81898   0.16770   0.33571   1.000
    Zr53    Zr   0.81903   0.16776   0.83572   1.000
    Zr54    Zr   0.81929   0.66804   0.33587   1.000
    Zr55    Zr   0.81916   0.66789   0.83580   1.000
    Zr56    Zr   0.15633   0.26417   0.23087   1.000
    Zr57    Zr   0.15638   0.26422   0.73087   1.000
    Zr58    Zr   0.15650   0.76428   0.23090   1.000
    Zr59    Zr   0.15646   0.76429   0.73092   1.000
    Zr60    Zr   0.65650   0.26430   0.23094   1.000
    Zr61    Zr   0.65645   0.26429   0.73092   1.000
    Zr62    Zr   0.65634   0.76417   0.23086   1.000
    Zr63    Zr   0.65637   0.76421   0.73087   1.000
    Zr64    Zr   0.98430   0.33196   0.16430   1.000
    Zr65    Zr   0.98425   0.33214   0.66432   1.000
    Zr66    Zr   0.98422   0.83234   0.16430   1.000
    Zr67    Zr   0.98423   0.83230   0.66436   1.000
    Zr68    Zr   0.48421   0.33236   0.16434   1.000
    Zr69    Zr   0.48422   0.33229   0.66436   1.000
    Zr70    Zr   0.48430   0.83198   0.16430   1.000
    Zr71    Zr   0.48424   0.83212   0.66432   1.000
    Zr72    Zr   0.42556   0.03377   0.26917   1.000
    Zr73    Zr   0.42528   0.03376   0.76915   1.000
    Zr74    Zr   0.42497   0.53371   0.26910   1.000
    Zr75    Zr   0.42503   0.53374   0.76911   1.000
    Zr76    Zr   0.92497   0.03370   0.26911   1.000
    Zr77    Zr   0.92502   0.03375   0.76910   1.000
    Zr78    Zr   0.92557   0.53375   0.26917   1.000
    Zr79    Zr   0.92527   0.53376   0.76915   1.000
    Zr80    Zr   0.18059   0.33203   0.16405   1.000
    Zr81    Zr   0.18063   0.33209   0.66407   1.000
    Zr82    Zr   0.18090   0.83238   0.16422   1.000
    Zr83    Zr   0.18077   0.83223   0.66415   1.000
    Zr84    Zr   0.68090   0.33238   0.16422   1.000
    Zr85    Zr   0.68075   0.33224   0.66415   1.000
    Zr86    Zr   0.68059   0.83202   0.16405   1.000
    Zr87    Zr   0.68063   0.83208   0.66407   1.000
    Zr88    Zr   0.34373   0.23602   0.26910   1.000
    Zr89    Zr   0.34367   0.23600   0.76909   1.000
    Zr90    Zr   0.34356   0.73589   0.26903   1.000
    Zr91    Zr   0.34360   0.73593   0.76904   1.000
    Zr92    Zr   0.84354   0.23589   0.26904   1.000
    Zr93    Zr   0.84359   0.23594   0.76904   1.000
    Zr94    Zr   0.84372   0.73600   0.26910   1.000
    Zr95    Zr   0.84368   0.73601   0.76909   1.000
    Zr96    Zr   0.27293   0.16432   0.20000   1.000
    Zr97    Zr   0.77291   0.66430   0.00000   1.000
    Zr98    Zr   0.22716   0.33606   0.70000   1.000
    Zr99    Zr   0.72737   0.33616   0.00010   1.000
    Zr100   Zr   0.72713   0.83604   0.30000   1.000
    Zr101   Zr   0.01124   0.14562   0.28948   1.000
    Zr102   Zr   0.01121   0.14585   0.78950   1.000
    Zr103   Zr   0.01121   0.64611   0.28956   1.000
    Zr104   Zr   0.01121   0.64608   0.78957   1.000
    Zr105   Zr   0.51120   0.14614   0.28957   1.000
    Zr106   Zr   0.51120   0.14607   0.78956   1.000
    Zr107   Zr   0.51124   0.64565   0.28948   1.000
    Zr108   Zr   0.51120   0.64583   0.78950   1.000
    Zr109   Zr   0.12032   0.01619   0.22744   1.000
    Zr110   Zr   0.12002   0.01622   0.72740   1.000
    Zr111   Zr   0.11963   0.51620   0.22734   1.000
    Zr112   Zr   0.11973   0.51623   0.72735   1.000
    Zr113   Zr   0.61963   0.01622   0.22734   1.000
    Zr114   Zr   0.61971   0.01623   0.72735   1.000
    Zr115   Zr   0.62032   0.51619   0.22744   1.000
    Zr116   Zr   0.62001   0.51620   0.72740   1.000
    Zr117   Zr   0.27791   0.14401   0.28967   1.000
    Zr118   Zr   0.27774   0.14396   0.78962   1.000
    Zr119   Zr   0.27752   0.64385   0.28950   1.000
    Zr120   Zr   0.27757   0.64389   0.78950   1.000
    Zr121   Zr   0.77751   0.14386   0.28954   1.000
    Zr122   Zr   0.77756   0.14390   0.78955   1.000
    Zr123   Zr   0.77791   0.64400   0.28967   1.000
    Zr124   Zr   0.77773   0.64395   0.78962   1.000
    Zr125   Zr   0.10741   0.21116   0.22751   1.000
    Zr126   Zr   0.10740   0.21128   0.72753   1.000
    Zr127   Zr   0.10743   0.71141   0.22757   1.000
    Zr128   Zr   0.10741   0.71141   0.72757   1.000
    Zr129   Zr   0.60742   0.21143   0.22757   1.000
    Zr130   Zr   0.60740   0.21141   0.72757   1.000
    Zr131   Zr   0.60741   0.71118   0.22751   1.000
    Zr132   Zr   0.60739   0.71126   0.72752   1.000
    Zr133   Zr   0.48874   0.35481   0.21053   1.000
    Zr134   Zr   0.48875   0.35475   0.71054   1.000
    Zr135   Zr   0.48881   0.85439   0.21040   1.000
    Zr136   Zr   0.48876   0.85455   0.71050   1.000
    Zr137   Zr   0.98879   0.35435   0.21048   1.000
    Zr138   Zr   0.98876   0.35457   0.71050   1.000
    Zr139   Zr   0.98874   0.85479   0.21053   1.000
    Zr140   Zr   0.98874   0.85476   0.71054   1.000
    Zr141   Zr   0.37949   0.48401   0.27200   1.000
    Zr142   Zr   0.37958   0.48402   0.77250   1.000
    Zr143   Zr   0.38019   0.98399   0.27260   1.000
    Zr144   Zr   0.37988   0.98400   0.77257   1.000
    Zr145   Zr   0.88018   0.48399   0.27260   1.000
    Zr146   Zr   0.87987   0.48401   0.77257   1.000
    Zr147   Zr   0.87948   0.98399   0.27250   1.000
    Zr148   Zr   0.87957   0.98402   0.77251   1.000
    Zr149   Zr   0.22194   0.35613   0.21026   1.000
    Zr150   Zr   0.22199   0.35617   0.71027   1.000
    Zr151   Zr   0.22235   0.85628   0.21000   1.000
    Zr152   Zr   0.22218   0.85622   0.71034   1.000
    Zr153   Zr   0.72235   0.35628   0.21040   1.000
    Zr154   Zr   0.72216   0.35623   0.71034   1.000
    Zr155   Zr   0.72194   0.85612   0.21026   1.000
    Zr156   Zr   0.72199   0.85616   0.71027   1.000
    Zr157   Zr   0.39256   0.28915   0.27252   1.000
    Zr158   Zr   0.39254   0.28912   0.77250   1.000
    Zr159   Zr   0.39255   0.78889   0.27240   1.000
    Zr160   Zr   0.39253   0.78897   0.77248   1.000
    Zr161   Zr   0.89254   0.28888   0.27240   1.000
    Zr162   Zr   0.89252   0.28899   0.77248   1.000
    Zr163   Zr   0.89256   0.78913   0.27252   1.000
    Zr164   Zr   0.89254   0.78912   0.77253   1.000
    O165    O    0.20126   0.34408   0.18715   1.000
    O166    O    0.70126   0.84407   0.18715   1.000
    O167    O    0.70162   0.34433   0.18731   1.000
    O168    O    0.20163   0.84433   0.18711   1.000
    O169    O    0.98648   0.84356   0.18741   1.000
    O170    O    0.98655   0.34315   0.18739   1.000
    O171    O    0.48655   0.84318   0.18735   1.000
    O172    O    0.48648   0.34358   0.18743   1.000
    O173    O    0.28892   0.85583   0.21010   1.000
    O174    O    0.78891   0.35583   0.21030   1.000
    O175    O    0.42201   0.35516   0.21037   1.000
    O176    O    0.36738   0.41976   0.24111   1.000
    O177    O    0.92201   0.85514   0.21037   1.000
    O178    O    0.73566   0.92803   0.23004   1.000
    O179    O    0.23567   0.42803   0.23004   1.000
    O180    O    0.59691   0.99134   0.22904   1.000
    O181    O    0.68451   0.00808   0.23858   1.000
    O182    O    0.09692   0.49133   0.22905   1.000
    O183    O    0.18452   0.50806   0.23858   1.000
    O184    O    0.59755   0.49134   0.22912   1.000
    O185    O    0.68533   0.50817   0.23876   1.000
    O186    O    0.09756   0.99134   0.22912   1.000
    O187    O    0.18533   0.00817   0.23872   1.000
    O188    O    0.13187   0.23766   0.22919   1.000
    O189    O    0.05371   0.23058   0.23876   1.000
    O190    O    0.63187   0.73767   0.22918   1.000
    O191    O    0.55371   0.73062   0.23877   1.000
    O192    O    0.13197   0.73785   0.22923   1.000
    O193    O    0.05380   0.73106   0.23885   1.000
    O194    O    0.63196   0.23787   0.22925   1.000
    O195    O    0.55380   0.23109   0.23885   1.000
    O196    O    0.81444   0.99196   0.26116   1.000
    O197    O    0.31526   0.99208   0.26130   1.000
    O198    O    0.26412   0.07208   0.26983   1.000
    O199    O    0.94627   0.26944   0.26121   1.000
    O200    O    0.44629   0.76948   0.26121   1.000
    O201    O    0.81525   0.49207   0.26134   1.000
    O202    O    0.76412   0.57208   0.26987   1.000
    O203    O    0.44637   0.26994   0.26133   1.000
    O204    O    0.94637   0.76992   0.26133   1.000
    O205    O    0.36806   0.76239   0.27071   1.000
    O206    O    0.86804   0.26239   0.27072   1.000
    O207    O    0.40223   0.50886   0.27055   1.000
    O208    O    0.86814   0.76256   0.27081   1.000
    O209    O    0.36815   0.26258   0.27081   1.000
    O210    O    0.90223   0.00885   0.27080   1.000
    O211    O    0.90287   0.50887   0.27088   1.000
    O212    O    0.40288   0.00888   0.27088   1.000
    O213    O    0.57792   0.64516   0.28960   1.000
    O214    O    0.51351   0.65681   0.31254   1.000
    O215    O    0.07793   0.14514   0.28961   1.000
    O216    O    0.00562   0.15678   0.31257   1.000
    O217    O    0.29826   0.65577   0.31260   1.000
    O218    O    0.79825   0.15578   0.31262   1.000
    O219    O    0.07781   0.64545   0.28966   1.000
    O220    O    0.00560   0.65725   0.31265   1.000
    O221    O    0.57780   0.14547   0.28966   1.000
    O222    O    0.51346   0.15728   0.31266   1.000
    O223    O    0.79860   0.65602   0.31277   1.000
    O224    O    0.29860   0.15602   0.31277   1.000
    O225    O    0.70131   0.84412   0.68717   1.000
    O226    O    0.20131   0.34413   0.68717   1.000
    O227    O    0.70146   0.34423   0.68724   1.000
    O228    O    0.20147   0.84422   0.68724   1.000
    O229    O    0.48650   0.84333   0.68741   1.000
    O230    O    0.98650   0.34336   0.68741   1.000
    O231    O    0.48648   0.34352   0.68745   1.000
    O232    O    0.98649   0.84353   0.68745   1.000
    O233    O    0.92202   0.85514   0.71037   1.000
    O234    O    0.42208   0.85499   0.71035   1.000
    O235    O    0.92207   0.35502   0.71035   1.000
    O236    O    0.29123   0.34579   0.70511   1.000
    O237    O    0.73574   0.92807   0.73006   1.000
    O238    O    0.23575   0.42807   0.73003   1.000
    O239    O    0.73603   0.42814   0.73012   1.000
    O240    O    0.23604   0.92814   0.73016   1.000
    O241    O    0.49445   0.30271   0.73035   1.000
    O242    O    0.09699   0.49137   0.72905   1.000
    O243    O    0.18462   0.50810   0.73857   1.000
    O244    O    0.59698   0.99136   0.72902   1.000
    O245    O    0.68460   0.00810   0.73860   1.000
    O246    O    0.59726   0.49136   0.72909   1.000
    O247    O    0.68495   0.50813   0.73865   1.000
    O248    O    0.09727   0.99136   0.72909   1.000
    O249    O    0.18496   0.00814   0.73869   1.000
    O250    O    0.63188   0.73773   0.72919   1.000
    O251    O    0.55373   0.73079   0.73879   1.000
    O252    O    0.13189   0.23775   0.72920   1.000
    O253    O    0.05374   0.23082   0.73880   1.000
    O254    O    0.13194   0.73785   0.72924   1.000
    O255    O    0.05379   0.73104   0.73886   1.000
    O256    O    0.63192   0.23785   0.72924   1.000
    O257    O    0.55378   0.23103   0.73886   1.000
    O258    O    0.31454   0.49200   0.76115   1.000
    O259    O    0.81453   0.99200   0.76118   1.000
    O260    O    0.81488   0.49204   0.76123   1.000
    O261    O    0.31489   0.99203   0.76127   1.000
    O262    O    0.44630   0.76964   0.76127   1.000
    O263    O    0.94630   0.26968   0.76128   1.000
    O264    O    0.94635   0.76990   0.76134   1.000
    O265    O    0.44635   0.26989   0.76133   1.000
    O266    O    0.86806   0.26247   0.77076   1.000
    O267    O    0.36807   0.76245   0.77076   1.000
    O268    O    0.86811   0.76257   0.77081   1.000
    O269    O    0.36811   0.26256   0.77079   1.000
    O270    O    0.90229   0.00889   0.77080   1.000
    O271    O    0.40231   0.50888   0.77080   1.000
    O272    O    0.90257   0.50889   0.77086   1.000
    O273    O    0.40258   0.00888   0.77086   1.000
    O274    O    0.07786   0.14529   0.78962   1.000
    O275    O    0.00560   0.15700   0.81259   1.000
    O276    O    0.29830   0.65582   0.81261   1.000
    O277    O    0.57786   0.64527   0.78962   1.000
    O278    O    0.51346   0.65697   0.81259   1.000
    O279    O    0.71099   0.14435   0.78962   1.000
    O280    O    0.79829   0.15583   0.81263   1.000
    O281    O    0.51345   0.15720   0.81265   1.000
    O282    O    0.07782   0.64544   0.78966   1.000
    O283    O    0.00561   0.65721   0.81266   1.000
    O284    O    0.29845   0.15593   0.81271   1.000
    O285    O    0.79845   0.65592   0.81271   1.000
    O286    O    0.00562   0.19781   0.26975   1.000
    O287    O    0.00565   0.19811   0.76979   1.000
    O288    O    0.00569   0.69841   0.26985   1.000
    O289    O    0.00569   0.69838   0.76986   1.000
    O290    O    0.50569   0.19844   0.26985   1.000
    O291    O    0.57781   0.14543   0.78963   1.000
    O292    O    0.50567   0.19836   0.76986   1.000
    O293    O    0.50563   0.69786   0.26975   1.000
    O294    O    0.50564   0.69807   0.76978   1.000
    O295    O    0.13247   0.08043   0.25859   1.000
    O296    O    0.13227   0.08048   0.75857   1.000
    O297    O    0.13202   0.58049   0.25855   1.000
    O298    O    0.13208   0.58052   0.75855   1.000
    O299    O    0.63202   0.08051   0.25855   1.000
    O300    O    0.63207   0.08051   0.75852   1.000
    O301    O    0.63246   0.58043   0.25858   1.000
    O302    O    0.63226   0.58046   0.75857   1.000
    O303    O    0.21126   0.14433   0.28970   1.000
    O304    O    0.21113   0.14435   0.78968   1.000
    O305    O    0.26382   0.07201   0.76980   1.000
    O306    O    0.21097   0.64432   0.28963   1.000
    O307    O    0.26346   0.57189   0.26966   1.000
    O308    O    0.21100   0.64435   0.78963   1.000
    O309    O    0.26354   0.57193   0.76965   1.000
    O310    O    0.71096   0.14433   0.28965   1.000
    O311    O    0.76345   0.07190   0.26968   1.000
    O312    O    0.76352   0.07194   0.76970   1.000
    O313    O    0.71125   0.64433   0.28970   1.000
    O314    O    0.71112   0.64433   0.78968   1.000
    O315    O    0.76381   0.57200   0.76976   1.000
    O316    O    0.12601   0.17791   0.25862   1.000
    O317    O    0.12596   0.17801   0.75863   1.000
    O318    O    0.12592   0.67810   0.25866   1.000
    O319    O    0.12592   0.67811   0.75866   1.000
    O320    O    0.62591   0.17812   0.25866   1.000
    O321    O    0.62591   0.17810   0.75863   1.000
    O322    O    0.62600   0.67792   0.25862   1.000
    O323    O    0.62595   0.67799   0.75863   1.000
    O324    O    0.49446   0.30277   0.23033   1.000
    O325    O    0.42202   0.35513   0.71038   1.000
    O326    O    0.42214   0.85489   0.21030   1.000
    O327    O    0.49441   0.80223   0.23021   1.000
    O328    O    0.49442   0.80243   0.73028   1.000
    O329    O    0.92213   0.35487   0.21034   1.000
    O330    O    0.99440   0.30218   0.23025   1.000
    O331    O    0.99442   0.30247   0.73029   1.000
    O332    O    0.99446   0.80275   0.23033   1.000
    O333    O    0.99446   0.80272   0.73035   1.000
    O334    O    0.31444   0.49197   0.26091   1.000
    O335    O    0.36744   0.41977   0.74136   1.000
    O336    O    0.36783   0.91969   0.24140   1.000
    O337    O    0.36764   0.91972   0.74139   1.000
    O338    O    0.86783   0.41969   0.24140   1.000
    O339    O    0.86762   0.41973   0.74139   1.000
    O340    O    0.86738   0.91975   0.24136   1.000
    O341    O    0.86743   0.91977   0.74135   1.000
    O342    O    0.28861   0.35582   0.21024   1.000
    O343    O    0.28865   0.35584   0.71025   1.000
    O344    O    0.23634   0.92822   0.23000   1.000
    O345    O    0.28878   0.85583   0.71027   1.000
    O346    O    0.73634   0.42822   0.23024   1.000
    O347    O    0.78877   0.35584   0.71027   1.000
    O348    O    0.78861   0.85581   0.21024   1.000
    O349    O    0.78864   0.85583   0.71023   1.000
    O350    O    0.37392   0.32233   0.24137   1.000
    O351    O    0.37392   0.32231   0.74136   1.000
    O352    O    0.37402   0.82214   0.24130   1.000
    O353    O    0.37396   0.82221   0.74134   1.000
    O354    O    0.87401   0.32213   0.24130   1.000
    O355    O    0.87395   0.32222   0.74134   1.000
    O356    O    0.87392   0.82231   0.24137   1.000
    O357    O    0.87392   0.82232   0.74136   1.000
    N358    N    0.74993   0.00013   0.49998   1.000
    O359    O    0.74935   0.99720   0.39691   1.000
    O360    O    0.75014   0.00292   0.60293   1.000
    O361    O    0.79721   0.93955   0.58538   1.000
    O362    O    0.70260   0.06075   0.41459   1.000
    O363    O    0.71145   0.85386   0.41460   1.000
    O364    O    0.78847   0.14637   0.58535   1.000
    O365    O    0.85273   0.10039   0.60298   1.000
    O366    O    0.64720   0.89992   0.39703   1.000
    N367    N    0.24994   0.50011   0.49997   1.000
    O368    O    0.25015   0.50290   0.60292   1.000
    O369    O    0.24936   0.49718   0.39690   1.000
    O370    O    0.29722   0.43954   0.58539   1.000
    O371    O    0.20261   0.56073   0.41458   1.000
    O372    O    0.14720   0.39988   0.39702   1.000
    O373    O    0.28848   0.64635   0.58535   1.000
    O374    O    0.21146   0.35384   0.41460   1.000
    O375    O    0.35273   0.60036   0.60298   1.000
    N376    N    0.25069   0.00462   0.49527   1.000
    O377    O    0.28883   0.14864   0.58301   1.000
    O378    O    0.20308   0.06295   0.41223   1.000
    O379    O    0.14768   0.90243   0.39472   1.000
    O380    O    0.25011   0.99955   0.39464   1.000
    O381    O    0.25069   0.00521   0.60064   1.000
    O382    O    0.29764   0.94177   0.58294   1.000
    O383    O    0.35316   0.10276   0.60067   1.000
    O384    O    0.21176   0.85615   0.41225   1.000
    N385    N    0.25114   0.50877   0.99997   1.000
    O386    O    0.25070   0.50721   0.10291   1.000
    O387    O    0.14783   0.40435   0.89704   1.000
    O388    O    0.25001   0.50154   0.89691   1.000
    O389    O    0.29780   0.44386   0.08538   1.000
    O390    O    0.20323   0.56507   0.91459   1.000
    O391    O    0.28912   0.65066   0.08534   1.000
    O392    O    0.21201   0.35821   0.91460   1.000
    O393    O    0.35331   0.60459   0.10296   1.000
    N394    N    0.24818   0.98602   0.00005   1.000
    O395    O    0.28757   0.13934   0.08540   1.000
    O396    O    0.20179   0.05368   0.91463   1.000
    O397    O    0.14642   0.89312   0.89712   1.000
    O398    O    0.24960   0.99595   0.10305   1.000
    O399    O    0.29643   0.93245   0.08542   1.000
    O400    O    0.35192   0.09348   0.10305   1.000
    O401    O    0.21052   0.84686   0.91466   1.000
    O402    O    0.24869   0.99021   0.89702   1.000
    N403    N    0.75011   0.50025   0.50005   1.000
    O404    O    0.79735   0.43960   0.58543   1.000
    O405    O    0.78854   0.64646   0.58540   1.000
    O406    O    0.85288   0.60058   0.60307   1.000
    O407    O    0.75040   0.50303   0.60301   1.000
    O408    O    0.70280   0.56077   0.41462   1.000
    O409    O    0.71147   0.35398   0.41466   1.000
    O410    O    0.74982   0.49737   0.39706   1.000
    O411    O    0.64739   0.40027   0.39711   1.000
    N412    N    0.75113   0.00875   0.99996   1.000
    O413    O    0.75000   0.00153   0.89691   1.000
    O414    O    0.75069   0.00720   0.10291   1.000
    O415    O    0.79779   0.94385   0.08538   1.000
    O416    O    0.64782   0.90433   0.89702   1.000
    O417    O    0.71201   0.85819   0.91460   1.000
    O418    O    0.78911   0.15065   0.08534   1.000
    O419    O    0.85330   0.10456   0.10296   1.000
    O420    O    0.70321   0.06506   0.91457   1.000
    N421    N    0.69545   0.43693   0.88305   1.000
    O422    O    0.67542   0.52913   0.85613   1.000
    O423    O    0.68414   0.32231   0.85614   1.000
    O424    O    0.72232   0.46566   0.83849   1.000
    O425    O    0.62004   0.36856   0.83862   1.000
    N426    N    0.80474   0.56354   0.12816   1.000
    O427    O    0.82471   0.47121   0.14947   1.000
    O428    O    0.81585   0.67809   0.14945   1.000
    O429    O    0.88020   0.63223   0.16711   1.000
    O430    O    0.77788   0.53470   0.16712   1.000
loop_
    _geom_bond_atom_site_label_1
    _geom_bond_atom_site_label_2
    _geom_bond_distance
    _geom_bond_site_symmetry_2
    _ccdc_geom_bond_type
    Zr80   O165      0.48793      .   S
    Zr149  O165      0.48793      .   S
    Zr86   O166      0.48793      .   S
    Zr155  O166      0.48793      .   S
    Zr84   O167      0.48791      .   S
    Zr153  O167      0.48791      .   S
    Zr82   O168      0.48444      .   S
    Zr151  O168      0.48444      .   S
    Zr66   O169      0.48840      .   S
    Zr139  O169      0.48840      .   S
    Zr64   O170      0.48792      .   S
    Zr137  O170      0.48792      .   S
    Zr70   O171      0.48704      .   S
    Zr135  O171      0.48704      .   S
    Zr68   O172      0.48794      .   S
    Zr133  O172      0.48794      .   S
    Zr151  O173      1.01149      .   S
    Zr10   O173      1.01149      .   S
    Zr12   O174      1.01278      .   S
    Zr153  O174      1.01278      .   S
    Zr8    O175      1.01349      .   S
    Zr133  O175      1.01349      .   S
    Zr8    O176      0.97960      .   S
    Zr141  O176      0.97960      .   S
    Zr14   O177      1.01348      .   S
    Zr139  O177      1.01348      .   S
    Zr155  O178      1.02320      .   S
    Zr28   O178      1.02320      .   S
    Zr149  O179      1.02308      .   S
    Zr26   O179      1.02308      .   S
    Zr113  O180      0.49586  1_545   S
    Zr46   O180      0.49586      .   S
    Zr113  O181      0.97905      .   S
    Zr28   O181      0.97905  1_565   S
    Zr111  O182      0.49585      .   S
    Zr40   O182      0.49585      .   S
    Zr111  O183      0.97904      .   S
    Zr26   O183      0.97904      .   S
    Zr115  O184      0.49576      .   S
    Zr44   O184      0.49576      .   S
    Zr115  O185      0.98023      .   S
    Zr30   O185      0.98023      .   S
    Zr109  O186      0.49579  1_545   S
    Zr42   O186      0.49579      .   S
    Zr109  O187      0.98019      .   S
    Zr24   O187      0.98019      .   S
    Zr125  O188      0.49568      .   S
    Zr56   O188      0.49568      .   S
    Zr125  O189      0.97944      .   S
    Zr16   O189      0.97944      .   S
    Zr131  O190      0.49569      .   S
    Zr62   O190      0.49569      .   S
    Zr131  O191      0.97947      .   S
    Zr22   O191      0.97947      .   S
    Zr127  O192      0.49580      .   S
    Zr58   O192      0.49580      .   S
    Zr127  O193      0.97974      .   S
    Zr18   O193      0.97974      .   S
    Zr129  O194      0.49563      .   S
    Zr60   O194      0.49563      .   S
    Zr129  O195      0.97974      .   S
    Zr20   O195      0.97974      .   S
    Zr28   O196      0.98062      .   S
    Zr147  O196      0.98062      .   S
    Zr24   O197      0.97947  1_545   S
    Zr143  O197      0.97947      .   S
    Zr24   O198      1.02343      .   S
    Zr117  O198      1.02343      .   S
    Zr16   O199      0.97930  1_455   S
    Zr161  O199      0.97930      .   S
    Zr22   O200      0.97918      .   S
    Zr159  O200      0.97918      .   S
    Zr30   O201      0.97938      .   S
    Zr145  O201      0.97938      .   S
    Zr30   O202      1.02340      .   S
    Zr123  O202      1.02340      .   S
    Zr20   O203      0.97917      .   S
    Zr157  O203      0.97917      .   S
    Zr18   O204      0.97927  1_455   S
    Zr163  O204      0.97927      .   S
    Zr90   O205      0.49590      .   S
    Zr159  O205      0.49590      .   S
    Zr92   O206      0.49591      .   S
    Zr161  O206      0.49591      .   S
    Zr74   O207      0.49293      .   S
    Zr141  O207      0.49293      .   S
    Zr94   O208      0.49567      .   S
    Zr163  O208      0.49567      .   S
    Zr88   O209      0.49567      .   S
    Zr157  O209      0.49567      .   S
    Zr76   O210      0.49578      .   S
    Zr147  O210      0.49578  1_565   S
    Zr78   O211      0.49578      .   S
    Zr145  O211      0.49578      .   S
    Zr72   O212      0.49582      .   S
    Zr143  O212      0.49582  1_565   S
    Zr107  O213      1.01318      .   S
    Zr6    O213      1.01318      .   S
    Zr107  O214      0.48717      .   S
    Zr34   O214      0.48717      .   S
    Zr101  O215      1.01320      .   S
    Zr0    O215      1.01320      .   S
    Zr101  O216      0.53459      .   S
    Zr36   O216      0.53459      .   S
    Zr119  O217      0.48816      .   S
    Zr50   O217      0.48816      .   S
    Zr121  O218      0.48789      .   S
    Zr52   O218      0.48789      .   S
    Zr103  O219      1.01254      .   S
    Zr2    O219      1.01254      .   S
    Zr103  O220      0.53434      .   S
    Zr38   O220      0.53434      .   S
    Zr105  O221      1.01255      .   S
    Zr4    O221      1.01255      .   S
    Zr105  O222      0.48785      .   S
    Zr32   O222      0.48785      .   S
    Zr123  O223      0.48790      .   S
    Zr54   O223      0.48790      .   S
    Zr117  O224      0.48791      .   S
    Zr48   O224      0.48791      .   S
    Zr87   O225      0.48786      .   S
    Zr156  O225      0.48786      .   S
    Zr81   O226      0.48786      .   S
    Zr150  O226      0.48786      .   S
    Zr85   O227      0.48789      .   S
    Zr154  O227      0.48789      .   S
    Zr83   O228      0.48789      .   S
    Zr152  O228      0.48789      .   S
    Zr71   O229      0.48785      .   S
    Zr136  O229      0.48785      .   S
    Zr65   O230      0.48788      .   S
    Zr138  O230      0.48788      .   S
    Zr69   O231      0.48786      .   S
    Zr134  O231      0.48786      .   S
    Zr67   O232      0.48789      .   S
    Zr140  O232      0.48789      .   S
    Zr15   O233      1.01329      .   S
    Zr140  O233      1.01329      .   S
    Zr11   O234      1.01304      .   S
    Zr136  O234      1.01304      .   S
    Zr13   O235      1.01307      .   S
    Zr138  O235      1.01307      .   S
    Zr9    O236      0.93201      .   S
    Zr98   O236      0.93201      .   S
    Zr156  O237      1.02320      .   S
    Zr29   O237      1.02320      .   S
    Zr150  O238      1.02306      .   S
    Zr27   O238      1.02306      .   S
    Zr154  O239      1.02318      .   S
    Zr31   O239      1.02318      .   S
    Zr152  O240      1.02337      .   S
    Zr25   O240      1.02337  1_545   S
    Zr134  O241      1.02252      .   S
    Zr21   O241      1.02252      .   S
    Zr112  O242      0.49583      .   S
    Zr41   O242      0.49583      .   S
    Zr112  O243      0.97912      .   S
    Zr27   O243      0.97912      .   S
    Zr114  O244      0.49557  1_545   S
    Zr47   O244      0.49557      .   S
    Zr114  O245      0.97910      .   S
    Zr29   O245      0.97910  1_565   S
    Zr116  O246      0.49581      .   S
    Zr45   O246      0.49581      .   S
    Zr116  O247      0.97960      .   S
    Zr31   O247      0.97960      .   S
    Zr110  O248      0.49587  1_545   S
    Zr43   O248      0.49587      .   S
    Zr110  O249      0.97962      .   S
    Zr25   O249      0.97962      .   S
    Zr132  O250      0.49566      .   S
    Zr63   O250      0.49566      .   S
    Zr132  O251      0.97957      .   S
    Zr23   O251      0.97957      .   S
    Zr126  O252      0.49569      .   S
    Zr57   O252      0.49569      .   S
    Zr126  O253      0.97956      .   S
    Zr17   O253      0.97956      .   S
    Zr128  O254      0.49564      .   S
    Zr59   O254      0.49564      .   S
    Zr128  O255      0.97971      .   S
    Zr19   O255      0.97971      .   S
    Zr130  O256      0.49563      .   S
    Zr61   O256      0.49563      .   S
    Zr130  O257      0.97972      .   S
    Zr21   O257      0.97972      .   S
    Zr27   O258      0.98047      .   S
    Zr142  O258      0.98047      .   S
    Zr29   O259      0.98056      .   S
    Zr148  O259      0.98056      .   S
    Zr31   O260      0.97999      .   S
    Zr146  O260      0.97999      .   S
    Zr25   O261      0.98008  1_545   S
    Zr144  O261      0.98008      .   S
    Zr23   O262      0.97939      .   S
    Zr160  O262      0.97939      .   S
    Zr17   O263      0.97946  1_455   S
    Zr162  O263      0.97946      .   S
    Zr19   O264      0.97935  1_455   S
    Zr164  O264      0.97935      .   S
    Zr21   O265      0.97911      .   S
    Zr158  O265      0.97911      .   S
    Zr93   O266      0.49565      .   S
    Zr162  O266      0.49565      .   S
    Zr91   O267      0.49563      .   S
    Zr160  O267      0.49563      .   S
    Zr95   O268      0.49566      .   S
    Zr164  O268      0.49566      .   S
    Zr89   O269      0.49578      .   S
    Zr158  O269      0.49578      .   S
    Zr77   O270      0.49578      .   S
    Zr148  O270      0.49578  1_565   S
    Zr75   O271      0.49565      .   S
    Zr142  O271      0.49565      .   S
    Zr79   O272      0.49577      .   S
    Zr146  O272      0.49577      .   S
    Zr73   O273      0.49581      .   S
    Zr144  O273      0.49581  1_565   S
    Zr102  O274      1.01292      .   S
    Zr1    O274      1.01292      .   S
    Zr102  O275      0.53446      .   S
    Zr37   O275      0.53446      .   S
    Zr120  O276      0.48839      .   S
    Zr51   O276      0.48839      .   S
    Zr108  O277      1.01291      .   S
    Zr7    O277      1.01291      .   S
    Zr108  O278      0.48796      .   S
    Zr35   O278      0.48796      .   S
    Zr122  O279      1.01266      .   S
    Zr5    O279      1.01266      .   S
    Zr122  O280      0.48787      .   S
    Zr53   O280      0.48787      .   S
    Zr106  O281      0.48794      .   S
    Zr33   O281      0.48794      .   S
    Zr104  O282      1.01265      .   S
    Zr3    O282      1.01265      .   S
    Zr104  O283      0.53436      .   S
    Zr39   O283      0.53436      .   S
    Zr118  O284      0.48783      .   S
    Zr49   O284      0.48783      .   S
    Zr124  O285      0.48784      .   S
    Zr55   O285      0.48784      .   S
    Zr101  O286      1.02326      .   S
    Zr16   O286      1.02326      .   S
    Zr102  O287      1.02381      .   S
    Zr17   O287      1.02381      .   S
    Zr103  O288      1.02436      .   S
    Zr18   O288      1.02436      .   S
    Zr104  O289      1.02430      .   S
    Zr19   O289      1.02430      .   S
    Zr105  O290      1.02445      .   S
    Zr20   O290      1.02445      .   S
    Zr106  O291      1.01284      .   S
    Zr5    O291      1.01284      .   S
    Zr106  O292      1.02422      .   S
    Zr21   O292      1.02422      .   S
    Zr107  O293      1.02342      .   S
    Zr22   O293      1.02342      .   S
    Zr108  O294      1.02377      .   S
    Zr23   O294      1.02377      .   S
    Zr109  O295      0.98156      .   S
    Zr0    O295      0.98156      .   S
    Zr110  O296      0.98173      .   S
    Zr1    O296      0.98173      .   S
    Zr111  O297      0.98216      .   S
    Zr2    O297      0.98216      .   S
    Zr112  O298      0.98205      .   S
    Zr3    O298      0.98205      .   S
    Zr113  O299      0.98215      .   S
    Zr4    O299      0.98215      .   S
    Zr114  O300      0.98179      .   S
    Zr5    O300      0.98179      .   S
    Zr115  O301      0.98154      .   S
    Zr6    O301      0.98154      .   S
    Zr116  O302      0.98176      .   S
    Zr7    O302      0.98176      .   S
    Zr117  O303      1.01342      .   S
    Zr0    O303      1.01342      .   S
    Zr118  O304      1.01313      .   S
    Zr1    O304      1.01313      .   S
    Zr118  O305      1.02359      .   S
    Zr25   O305      1.02359      .   S
    Zr119  O306      1.01284      .   S
    Zr2    O306      1.01284      .   S
    Zr119  O307      1.02371      .   S
    Zr26   O307      1.02371      .   S
    Zr120  O308      1.01305      .   S
    Zr3    O308      1.01305      .   S
    Zr120  O309      1.02374      .   S
    Zr27   O309      1.02374      .   S
    Zr121  O310      1.01275      .   S
    Zr4    O310      1.01275      .   S
    Zr121  O311      1.02375      .   S
    Zr28   O311      1.02375  1_565   S
    Zr122  O312      1.02373      .   S
    Zr29   O312      1.02373  1_565   S
    Zr123  O313      1.01343      .   S
    Zr6    O313      1.01343      .   S
    Zr124  O314      1.01313      .   S
    Zr7    O314      1.01313      .   S
    Zr124  O315      1.02363      .   S
    Zr31   O315      1.02363      .   S
    Zr125  O316      0.98255      .   S
    Zr0    O316      0.98255      .   S
    Zr126  O317      0.98259      .   S
    Zr1    O317      0.98259      .   S
    Zr127  O318      0.98272      .   S
    Zr2    O318      0.98272      .   S
    Zr128  O319      0.98271      .   S
    Zr3    O319      0.98271      .   S
    Zr129  O320      0.98274      .   S
    Zr4    O320      0.98274      .   S
    Zr130  O321      0.98215      .   S
    Zr5    O321      0.98215      .   S
    Zr131  O322      0.98255      .   S
    Zr6    O322      0.98255      .   S
    Zr132  O323      0.98272      .   S
    Zr7    O323      0.98272      .   S
    Zr133  O324      1.02230      .   S
    Zr20   O324      1.02230      .   S
    Zr134  O325      1.01338      .   S
    Zr9    O325      1.01338      .   S
    Zr135  O326      1.01309      .   S
    Zr10   O326      1.01309      .   S
    Zr135  O327      1.02407      .   S
    Zr22   O327      1.02407      .   S
    Zr136  O328      1.02304      .   S
    Zr23   O328      1.02304      .   S
    Zr137  O329      1.01280      .   S
    Zr12   O329      1.01280      .   S
    Zr137  O330      1.02364      .   S
    Zr16   O330      1.02364  1_455   S
    Zr138  O331      1.02302      .   S
    Zr17   O331      1.02302  1_455   S
    Zr139  O332      1.02237      .   S
    Zr18   O332      1.02237  1_455   S
    Zr140  O333      1.02247      .   S
    Zr19   O333      1.02247  1_455   S
    Zr141  O334      0.98051      .   S
    Zr26   O334      0.98051      .   S
    Zr142  O335      0.98167      .   S
    Zr9    O335      0.98167      .   S
    Zr143  O336      0.98223      .   S
    Zr10   O336      0.98223      .   S
    Zr144  O337      0.98206      .   S
    Zr11   O337      0.98206      .   S
    Zr145  O338      0.98221      .   S
    Zr12   O338      0.98221      .   S
    Zr146  O339      0.98205      .   S
    Zr13   O339      0.98205      .   S
    Zr147  O340      0.98165      .   S
    Zr14   O340      0.98165      .   S
    Zr148  O341      0.98184      .   S
    Zr15   O341      0.98184      .   S
    Zr149  O342      1.01351      .   S
    Zr8    O342      1.01351      .   S
    Zr150  O343      1.01336      .   S
    Zr9    O343      1.01336      .   S
    Zr151  O344      1.02374      .   S
    Zr24   O344      1.02374  1_545   S
    Zr152  O345      1.01309      .   S
    Zr11   O345      1.01309      .   S
    Zr153  O346      1.02342      .   S
    Zr30   O346      1.02342      .   S
    Zr154  O347      1.01308      .   S
    Zr13   O347      1.01308      .   S
    Zr155  O348      1.01353      .   S
    Zr14   O348      1.01353      .   S
    Zr156  O349      1.01345      .   S
    Zr15   O349      1.01345      .   S
    Zr157  O350      0.98253      .   S
    Zr8    O350      0.98253      .   S
    Zr158  O351      0.98234      .   S
    Zr9    O351      0.98234      .   S
    Zr159  O352      0.98216      .   S
    Zr10   O352      0.98216      .   S
    Zr160  O353      0.98268      .   S
    Zr11   O353      0.98268      .   S
    Zr161  O354      0.98213      .   S
    Zr12   O354      0.98213      .   S
    Zr162  O355      0.98265      .   S
    Zr13   O355      0.98265      .   S
    Zr163  O356      0.98256      .   S
    Zr14   O356      0.98256      .   S
    Zr164  O357      0.98284      .   S
    Zr15   O357      0.98284      .   S
    N358   O359      2.31202  1_545   S
    Zr28   O359      3.33386      .   S
    N358   O360      2.31168      .   S
    Zr29   O360      3.33373  1_565   S
    N358   O361      2.34953  1_545   S
    Zr15   O361      3.37147      .   S
    N358   O362      2.34964      .   S
    Zr4    O362      3.37200      .   S
    N358   O363      2.34990  1_545   S
    Zr6    O363      3.37352      .   S
    N358   O364      2.34947      .   S
    Zr13   O364      3.37230      .   S
    N358   O365      2.31506      .   S
    Zr17   O365      3.33851  1_455   S
    N358   O366      2.31366  1_545   S
    Zr22   O366      3.33591      .   S
    N367   O368      2.31139      .   S
    Zr27   O368      3.33285      .   S
    N367   O369      2.31206      .   S
    Zr26   O369      3.33379      .   S
    N367   O370      2.34962      .   S
    Zr9    O370      3.37183      .   S
    N367   O371      2.34978      .   S
    Zr2    O371      3.37180      .   S
    N367   O372      2.31380      .   S
    Zr16   O372      3.33616      .   S
    N367   O373      2.34949      .   S
    Zr11   O373      3.37236      .   S
    N367   O374      2.34979      .   S
    Zr0    O374      3.37330      .   S
    N367   O375      2.31500      .   S
    Zr23   O375      3.33830      .   S
    N376   O377      2.35344      .   S
    Zr9    O377      3.37614      .   S
    N376   O378      2.28156      .   S
    Zr0    O378      3.30262      .   S
    N376   O379      2.29087  1_545   S
    Zr18   O379      3.31389      .   S
    N376   O380      2.24796  1_545   S
    Zr24   O380      3.26977  1_545   S
    N376   O381      2.37664      .   S
    Zr25   O381      3.39946      .   S
    N376   O382      2.41582  1_545   S
    Zr11   O382      3.44276      .   S
    N376   O383      2.33892      .   S
    Zr21   O383      3.36042      .   S
    N376   O384      2.34799  1_545   S
    Zr2    O384      3.37044      .   S
    N385   O386      2.33339  1_556   S
    Zr26   O386      3.35711      .   S
    N385   O387      2.33451      .   S
    Zr17   O387      3.35770      .   S
    N385   O388      2.29220      .   S
    Zr27   O388      3.31252      .   S
    N385   O389      2.39361  1_556   S
    Zr8    O389      3.41509      .   S
    N385   O390      2.30656      .   S
    Zr3    O390      3.32925      .   S
    N385   O391      2.30602  1_556   S
    Zr10   O391      3.32909      .   S
    N385   O392      2.39361      .   S
    Zr1    O392      3.41637      .   S
    N385   O393      2.29422  1_556   S
    Zr22   O393      3.31496      .   S
    N394   O395      2.42230  1_565   S
    Zr8    O395      3.44365      .   S
    N394   O396      2.42273  1_564   S
    Zr1    O396      3.44387      .   S
    N394   O397      2.28071  1_554   S
    Zr19   O397      3.29855      .   S
    N394   O398      2.27929      .   S
    Zr24   O398      3.29661  1_545   S
    N394   O399      2.27941      .   S
    Zr10   O399      3.30216      .   S
    N394   O400      2.35184  1_565   S
    Zr20   O400      3.37775      .   S
    N394   O401      2.27936  1_554   S
    Zr3    O401      3.30352      .   S
    N394   O402      2.34838  1_554   S
    Zr25   O402      3.37254  1_545   S
    N403   O404      2.34961      .   S
    Zr13   O404      3.37172      .   S
    N403   O405      2.34899      .   S
    Zr15   O405      3.37145      .   S
    N403   O406      2.31523      .   S
    Zr19   O406      3.33879  1_455   S
    N403   O407      2.31144      .   S
    Zr31   O407      3.33254      .   S
    N403   O408      2.34941      .   S
    Zr6    O408      3.37160      .   S
    N403   O409      2.34985      .   S
    Zr4    O409      3.37343      .   S
    N403   O410      2.31176      .   S
    Zr30   O410      3.33375      .   S
    N403   O411      2.31264      .   S
    Zr20   O411      3.33420      .   S
    N412   O413      2.29188      .   S
    Zr29   O413      3.31155  1_565   S
    N412   O414      2.33344  1_556   S
    Zr28   O414      3.35713  1_565   S
    N412   O415      2.39370  1_546   S
    Zr14   O415      3.41516      .   S
    N412   O416      2.33469  1_545   S
    Zr23   O416      3.35766      .   S
    N412   O417      2.39352  1_545   S
    Zr7    O417      3.41619      .   S
    N412   O418      2.30614  1_556   S
    Zr12   O418      3.32934      .   S
    N412   O419      2.29417  1_556   S
    Zr16   O419      3.31478  1_455   S
    N412   O420      2.30681      .   S
    Zr5    O420      3.33016      .   S
    N421   O422      1.72037      .   S
    Zr7    O422      2.63828      .   S
    N421   O423      1.64348      .   S
    Zr5    O423      2.57318      .   S
    N421   O424      1.34886      .   S
    Zr31   O424      2.34413      .   S
    N421   O425      1.34446      .   S
    Zr21   O425      2.33501      .   S
    N426   O427      1.65688      .   S
    Zr12   O427      2.55171      .   S
    N426   O428      1.64446      .   S
    Zr14   O428      2.54873      .   S
    N426   O429      1.31902      .   S
    Zr18   O429      2.29269  1_455   S
    N426   O430      1.23327      .   S
    Zr30   O430      2.22176      .   S
