# CIF file generated by openbabel 2.4.90, see http://openbabel.sf.net
data_I
_chemical_name_common ''
_cell_length_a 15.826
_cell_length_b 15.805
_cell_length_c 18.637
_cell_angle_alpha 90
_cell_angle_beta 90.002
_cell_angle_gamma 89.996
_space_group_name_H-M_alt 'P 1'
_space_group_name_Hall 'P 1'
loop_
    _symmetry_equiv_pos_as_xyz
    x,y,z
loop_
    _atom_site_label
    _atom_site_type_symbol
    _atom_site_fract_x
    _atom_site_fract_y
    _atom_site_fract_z
    _atom_site_occupancy
    H0      H    0.88227   0.95268   0.41865   1.000
    H1      H    0.02612   0.86333   0.38013   1.000
    H2      H    0.66835   0.65257   0.42331   1.000
    H3      H    0.73730   0.95482   0.25334   1.000
    H4      H    0.78226   0.92092   0.55212   1.000
    H5      H    0.54201   0.81722   0.50950   1.000
    H6      H    0.69217   0.90811   0.67965   1.000
    H7      H    0.57319   0.82518   0.27113   1.000
    H8      H    0.57828   0.56456   0.31947   1.000
    H9      H    0.63753   0.09014   0.20927   1.000
    H10     H    0.55830   0.00982   0.41410   1.000
    H11     H    0.81155   0.71123   0.34363   1.000
    H12     H    0.61771   0.04725   0.91854   1.000
    H13     H    0.47387   0.13661   0.88003   1.000
    H14     H    0.83172   0.34738   0.92336   1.000
    H15     H    0.76266   0.04517   0.75333   1.000
    H16     H    0.71775   0.07901   0.05211   1.000
    H17     H    0.95793   0.18285   0.00953   1.000
    H18     H    0.80784   0.09183   0.17965   1.000
    H19     H    0.92674   0.17480   0.77109   1.000
    H20     H    0.92179   0.43540   0.81954   1.000
    H21     H    0.86245   0.90986   0.70925   1.000
    H22     H    0.94163   0.99012   0.91412   1.000
    H23     H    0.68841   0.28880   0.84372   1.000
    H24     H    0.11770   0.45270   0.08134   1.000
    H25     H    0.97386   0.36335   0.11980   1.000
    H26     H    0.33148   0.15255   0.07675   1.000
    H27     H    0.26266   0.45486   0.24664   1.000
    H28     H    0.21778   0.42117   0.94789   1.000
    H29     H    0.45789   0.31710   0.99046   1.000
    H30     H    0.30787   0.40836   0.82036   1.000
    H31     H    0.42689   0.32519   0.22879   1.000
    H32     H    0.42154   0.06453   0.18059   1.000
    H33     H    0.36242   0.59016   0.29070   1.000
    H34     H    0.44171   0.50979   0.08590   1.000
    H35     H    0.18844   0.21126   0.15641   1.000
    H36     H    0.38225   0.54724   0.58146   1.000
    H37     H    0.52609   0.63659   0.61998   1.000
    H38     H    0.16825   0.84738   0.57662   1.000
    H39     H    0.23731   0.54514   0.74665   1.000
    H40     H    0.28215   0.57873   0.44790   1.000
    H41     H    0.04211   0.68295   0.49044   1.000
    H42     H    0.19207   0.59156   0.32037   1.000
    H43     H    0.07318   0.67480   0.72885   1.000
    H44     H    0.07818   0.93541   0.68045   1.000
    H45     H    0.13754   0.40984   0.79072   1.000
    H46     H    0.05829   0.49016   0.58580   1.000
    H47     H    0.31154   0.78878   0.65631   1.000
    H48     H    0.11770   0.04730   0.58133   1.000
    H49     H    0.97385   0.13664   0.61980   1.000
    H50     H    0.33159   0.34741   0.57600   1.000
    H51     H    0.26268   0.04517   0.74665   1.000
    H52     H    0.21771   0.07907   0.44786   1.000
    H53     H    0.45796   0.18275   0.49049   1.000
    H54     H    0.30780   0.09187   0.32033   1.000
    H55     H    0.42679   0.17480   0.72885   1.000
    H56     H    0.42166   0.43543   0.68053   1.000
    H57     H    0.36246   0.90985   0.79072   1.000
    H58     H    0.44166   0.99015   0.58588   1.000
    H59     H    0.18842   0.28874   0.65636   1.000
    H60     H    0.38226   0.95272   0.08142   1.000
    H61     H    0.52611   0.86337   0.11993   1.000
    H62     H    0.16823   0.65261   0.07662   1.000
    H63     H    0.23730   0.95481   0.24660   1.000
    H64     H    0.28223   0.92096   0.94787   1.000
    H65     H    0.04204   0.81714   0.99046   1.000
    H66     H    0.19214   0.90814   0.82033   1.000
    H67     H    0.07325   0.82518   0.22890   1.000
    H68     H    0.07816   0.56458   0.18043   1.000
    H69     H    0.13752   0.09012   0.29073   1.000
    H70     H    0.05834   0.00986   0.08586   1.000
    H71     H    0.31156   0.71119   0.15628   1.000
    H72     H    0.88228   0.54729   0.91865   1.000
    H73     H    0.02611   0.63663   0.88012   1.000
    H74     H    0.66847   0.84743   0.92324   1.000
    H75     H    0.73730   0.54513   0.75334   1.000
    H76     H    0.78220   0.57881   0.05210   1.000
    H77     H    0.54208   0.68287   0.00952   1.000
    H78     H    0.69210   0.59161   0.17963   1.000
    H79     H    0.57308   0.67479   0.77100   1.000
    H80     H    0.57841   0.93544   0.81940   1.000
    H81     H    0.63754   0.40982   0.70927   1.000
    H82     H    0.55827   0.49019   0.91408   1.000
    H83     H    0.81153   0.78871   0.84356   1.000
    C84     C    0.81477   0.48631   0.28013   1.000
    C85     C    0.78147   0.39865   0.56201   1.000
    C86     C    0.90517   0.34489   0.53839   1.000
    C87     C    0.82602   0.39240   0.62516   1.000
    H88     H    0.61771   0.45273   0.41850   1.000
    H89     H    0.47388   0.36339   0.38002   1.000
    H90     H    0.83170   0.15260   0.42335   1.000
    H91     H    0.76266   0.45485   0.25334   1.000
    H92     H    0.71781   0.42123   0.55208   1.000
    H93     H    0.95787   0.31704   0.50954   1.000
    H94     H    0.80790   0.40840   0.67962   1.000
    H95     H    0.92678   0.32518   0.27113   1.000
    H96     H    0.92178   0.06457   0.31953   1.000
    H97     H    0.86243   0.59014   0.20926   1.000
    H98     H    0.94168   0.50981   0.41409   1.000
    H99     H    0.68843   0.21121   0.34367   1.000
    C100    C    0.88874   0.88912   0.39740   1.000
    C101    C    0.96015   0.84484   0.37810   1.000
    C102    C    0.63517   0.67548   0.37622   1.000
    C103    C    0.68519   0.98629   0.28013   1.000
    C104    C    0.71856   0.89846   0.56204   1.000
    C105    C    0.59476   0.84494   0.53837   1.000
    C106    C    0.67400   0.89221   0.62510   1.000
    C107    C    0.58673   0.76605   0.29840   1.000
    C108    C    0.59044   0.63182   0.32481   1.000
    C109    C    0.63578   0.05321   0.25831   1.000
    C110    C    0.59355   0.01326   0.36424   1.000
    C111    C    0.85041   0.76484   0.35892   1.000
    C112    C    0.61124   0.11084   0.89730   1.000
    C113    C    0.53983   0.15511   0.87800   1.000
    C114    C    0.86487   0.32447   0.87626   1.000
    C115    C    0.81477   0.01370   0.78013   1.000
    N116    N    0.81915   0.66198   0.88509   1.000
    N117    N    0.63263   0.73918   0.85923   1.000
    N118    N    0.65812   0.53878   0.84753   1.000
    N119    N    0.66802   0.63154   0.00699   1.000
    N120    N    0.59540   0.64167   0.10986   1.000
    C121    C    0.78143   0.10150   0.06203   1.000
    C122    C    0.90520   0.15509   0.03839   1.000
    C123    C    0.82599   0.10775   0.12510   1.000
    C124    C    0.91323   0.23392   0.79839   1.000
    C125    C    0.90960   0.36814   0.82485   1.000
    C126    C    0.86419   0.94677   0.75830   1.000
    C127    C    0.90639   0.98669   0.86426   1.000
    C128    C    0.64955   0.23517   0.85896   1.000
    C129    C    0.11123   0.38914   0.10260   1.000
    C130    C    0.03984   0.34487   0.12189   1.000
    C131    C    0.36472   0.17546   0.12380   1.000
    C132    C    0.31478   0.48631   0.21985   1.000
    C133    C    0.28144   0.39862   0.93796   1.000
    C134    C    0.40518   0.34492   0.96160   1.000
    C135    C    0.32600   0.39238   0.87480   1.000
    C136    C    0.41328   0.26605   0.20156   1.000
    C137    C    0.40944   0.13180   0.17522   1.000
    C138    C    0.36419   0.55323   0.24167   1.000
    C139    C    0.40644   0.51325   0.13575   1.000
    C140    C    0.14957   0.26487   0.14111   1.000
    C141    C    0.38872   0.61082   0.60267   1.000
    C142    C    0.46013   0.65510   0.62195   1.000
    C143    C    0.13509   0.82448   0.62371   1.000
    C144    C    0.18520   0.51368   0.71986   1.000
    C145    C    0.21850   0.60131   0.43790   1.000
    C146    C    0.09480   0.65510   0.46159   1.000
    C147    C    0.17394   0.60757   0.37482   1.000
    C148    C    0.08670   0.73392   0.70157   1.000
    C149    C    0.09036   0.86815   0.67512   1.000
    C150    C    0.13578   0.44677   0.74168   1.000
    C151    C    0.09355   0.48672   0.63574   1.000
    C152    C    0.35040   0.73515   0.64106   1.000
    C153    C    0.11123   0.11085   0.60258   1.000
    C154    C    0.03982   0.15513   0.62187   1.000
    C155    C    0.36478   0.32450   0.62377   1.000
    C156    C    0.31479   0.01370   0.71985   1.000
    C157    C    0.28141   0.10153   0.43790   1.000
    C158    C    0.40521   0.15504   0.46161   1.000
    C159    C    0.32597   0.10777   0.37480   1.000
    C160    C    0.41323   0.23393   0.70159   1.000
    C161    C    0.40950   0.36816   0.67510   1.000
    C162    C    0.36420   0.94677   0.74167   1.000
    C163    C    0.40642   0.98671   0.63574   1.000
    C164    C    0.14956   0.23514   0.64107   1.000
    C165    C    0.38874   0.88914   0.10260   1.000
    C166    C    0.46014   0.84486   0.12190   1.000
    C167    C    0.13509   0.67551   0.12372   1.000
    C168    C    0.18520   0.98628   0.21986   1.000
    C169    C    0.21854   0.89847   0.93795   1.000
    C170    C    0.09477   0.84489   0.96159   1.000
    C171    C    0.17399   0.89222   0.87480   1.000
    C172    C    0.08675   0.76606   0.20160   1.000
    C173    C    0.09036   0.63184   0.17512   1.000
    C174    C    0.13578   0.05321   0.24168   1.000
    C175    C    0.09358   0.01329   0.13570   1.000
    C176    C    0.35042   0.76482   0.14103   1.000
    C177    C    0.88874   0.61084   0.89739   1.000
    C178    C    0.96014   0.65512   0.87810   1.000
    C179    C    0.63524   0.82451   0.87619   1.000
    C180    C    0.68518   0.51368   0.78013   1.000
    C181    C    0.71853   0.60135   0.06202   1.000
    C182    C    0.59480   0.65506   0.03838   1.000
    C183    C    0.67397   0.60759   0.12517   1.000
    C184    C    0.58669   0.73392   0.79843   1.000
    C185    C    0.59052   0.86818   0.82477   1.000
    C186    C    0.63577   0.44676   0.75831   1.000
    C187    C    0.59353   0.48673   0.86423   1.000
    C188    C    0.85040   0.73511   0.85887   1.000
    C189    C    0.61124   0.38916   0.39732   1.000
    C190    C    0.53984   0.34488   0.37800   1.000
    C191    C    0.86487   0.17550   0.37626   1.000
    C192    C    0.91326   0.26606   0.29841   1.000
    C193    C    0.90960   0.13183   0.32485   1.000
    C194    C    0.86419   0.55321   0.25831   1.000
    C195    C    0.90643   0.51326   0.36424   1.000
    C196    C    0.64957   0.26484   0.35892   1.000
    N197    N    0.81916   0.83797   0.38512   1.000
    N198    N    0.63263   0.76080   0.35922   1.000
    N199    N    0.65814   0.96119   0.34754   1.000
    N200    N    0.66801   0.86839   0.50699   1.000
    N201    N    0.59540   0.85825   0.60987   1.000
    N202    N    0.55963   0.68975   0.27554   1.000
    N203    N    0.57757   0.07006   0.31196   1.000
    N204    N    0.93541   0.76588   0.35370   1.000
    N205    N    0.68081   0.16201   0.88512   1.000
    N206    N    0.86736   0.23916   0.85922   1.000
    N207    N    0.84181   0.03877   0.84755   1.000
    N208    N    0.83197   0.13162   0.00700   1.000
    N209    N    0.90458   0.14176   0.10988   1.000
    N210    N    0.94037   0.31022   0.77556   1.000
    N211    N    0.92238   0.92991   0.81196   1.000
    N212    N    0.56456   0.23411   0.85370   1.000
    N213    N    0.18082   0.33800   0.11489   1.000
    N214    N    0.36734   0.26079   0.14076   1.000
    N215    N    0.34185   0.46120   0.15245   1.000
    N216    N    0.33195   0.36843   0.99299   1.000
    N217    N    0.40457   0.35830   0.89012   1.000
    N218    N    0.44034   0.18975   0.22440   1.000
    N219    N    0.42242   0.57006   0.18803   1.000
    N220    N    0.06458   0.26590   0.14630   1.000
    N221    N    0.31915   0.66200   0.61490   1.000
    N222    N    0.13258   0.73916   0.64074   1.000
    N223    N    0.15814   0.53877   0.65244   1.000
    N224    N    0.16801   0.63155   0.49000   1.000
    N225    N    0.09540   0.64170   0.39011   1.000
    N226    N    0.05958   0.81022   0.72440   1.000
    N227    N    0.07757   0.42992   0.68803   1.000
    N228    N    0.43540   0.73410   0.64630   1.000
    N229    N    0.18081   0.16200   0.61486   1.000
    N230    N    0.36733   0.23918   0.64077   1.000
    N231    N    0.34183   0.03879   0.65244   1.000
    N232    N    0.33196   0.13159   0.49299   1.000
    N233    N    0.40458   0.14173   0.39012   1.000
    N234    N    0.44033   0.31023   0.72444   1.000
    N235    N    0.42241   0.92992   0.68800   1.000
    N236    N    0.06456   0.23410   0.64629   1.000
    N237    N    0.31916   0.83797   0.11486   1.000
    N238    N    0.13261   0.76082   0.14076   1.000
    N239    N    0.15816   0.96121   0.15243   1.000
    N240    N    0.16801   0.86836   0.99298   1.000
    N241    N    0.09539   0.85822   0.89010   1.000
    N242    N    0.05960   0.68976   0.22442   1.000
    N243    N    0.07759   0.07007   0.18802   1.000
    N244    N    0.43542   0.76587   0.14628   1.000
    N245    N    0.55963   0.81023   0.77555   1.000
    N246    N    0.57755   0.42993   0.81195   1.000
    N247    N    0.93540   0.73408   0.85366   1.000
    N248    N    0.68082   0.33799   0.38509   1.000
    N249    N    0.86738   0.26081   0.35924   1.000
    N250    N    0.84183   0.46121   0.34754   1.000
    N251    N    0.83196   0.36843   0.50699   1.000
    N252    N    0.90457   0.35828   0.60987   1.000
    N253    N    0.94038   0.18976   0.27558   1.000
    N254    N    0.92241   0.57006   0.31195   1.000
    N255    N    0.56457   0.26589   0.35367   1.000
loop_
    _geom_bond_atom_site_label_1
    _geom_bond_atom_site_label_2
    _geom_bond_distance
    _geom_bond_site_symmetry_2
    _ccdc_geom_bond_type
    N119   C182      1.35033      .   S
    N119   C181      1.38504      .   S
    N208   C122      1.35029      .   S
    N208   C121      1.38495      .   S
    H77    C182      1.08556      .   S
    H17    C122      1.08550      .   S
    C182   N120      1.34890      .   S
    C122   N209      1.34895      .   S
    H76    C181      1.08458      .   S
    H16    C121      1.08457      .   S
    C181   C183      1.37559      .   S
    C121   C123      1.37428      .   S
    H62    C167      1.08477      .   S
    H26    C131      1.08479      .   S
    H24    C129      1.08465      .   S
    H60    C165      1.08442      .   S
    H70    C175      1.08477      .   S
    H34    C139      1.08518      .   S
    C165   N237      1.38522      .   S
    C165   C166      1.37699      .   S
    C129   N213      1.38511      .   S
    C129   C130      1.37690      .   S
    N120   C183      1.38469      .   S
    N209   C123      1.38437      .   S
    N237   C176      1.34879      .   S
    N213   C140      1.34882      .   S
    H25    C130      1.08489  1_655   S
    H61    C166      1.08475      .   S
    C130   N220      1.38485      .   S
    C166   N244      1.38509      .   S
    C167   N238      1.38575      .   S
    C167   C173      1.37666      .   S
    C131   N214      1.38579      .   S
    C131   C137      1.37674      .   S
    C123   H18       1.08605      .   S
    C183   H78       1.08456      .   S
    C175   N239      1.34880  1_545   S
    C175   N243      1.34914      .   S
    C139   N215      1.34863      .   S
    C139   N219      1.34888      .   S
    N214   C136      1.34887      .   S
    N238   C172      1.34888      .   S
    C176   N244      1.34880      .   S
    C176   H71       1.08509      .   S
    C140   N220      1.34875      .   S
    C140   H35       1.08507      .   S
    N239   C168      1.38542      .   S
    N215   C132      1.38525      .   S
    C173   H68       1.08491      .   S
    C173   N242      1.38535      .   S
    C137   H32       1.08492      .   S
    C137   N218      1.38492      .   S
    N243   C174      1.38538      .   S
    N219   C138      1.38541      .   S
    C136   N218      1.34866      .   S
    C136   H31       1.08515      .   S
    C172   N242      1.34889      .   S
    C172   H67       1.08516      .   S
    H97    C194      1.08492      .   S
    H9     C109      1.08477      .   S
    C132   C138      1.37676      .   S
    C132   H27       1.08483      .   S
    C168   C174      1.37685  1_565   S
    C168   H63       1.08432      .   S
    C138   H33       1.08471      .   S
    C174   H69       1.08478      .   S
    H91    C84       1.08481      .   S
    H3     C103      1.08480      .   S
    C109   C103      1.37688  1_545   S
    C109   N203      1.38540      .   S
    C194   C84       1.37673      .   S
    C194   N254      1.38532      .   S
    H95    C192      1.08514      .   S
    H7     C107      1.08514      .   S
    N202   C107      1.34893      .   S
    N202   C108      1.38539      .   S
    N253   C192      1.34888      .   S
    N253   C193      1.38524      .   S
    C103   N199      1.38529      .   S
    C84    N250      1.38528      .   S
    C107   N198      1.34883      .   S
    C192   N249      1.34885      .   S
    N254   C195      1.34890      .   S
    N203   C110      1.34877      .   S
    H8     C108      1.08491      .   S
    H96    C193      1.08492      .   S
    H54    C159      1.08456      .   S
    H42    C147      1.08446      .   S
    C108   C102      1.37667      .   S
    C193   C191      1.37674      .   S
    H11    C111      1.08507      .   S
    H99    C196      1.08508      .   S
    N250   C195      1.34862      .   S
    N199   C110      1.34869  1_565   S
    N255   C196      1.34881      .   S
    N255   C190      1.38474      .   S
    N204   C111      1.34880      .   S
    N204   C101      1.38486      .   S
    C111   N197      1.34874      .   S
    C196   N248      1.34878      .   S
    N198   C102      1.38575      .   S
    N249   C191      1.38577      .   S
    C110   H10       1.08525      .   S
    C195   H98       1.08508      .   S
    C159   N233      1.38469      .   S
    C159   C157      1.37480      .   S
    C147   N225      1.38468      .   S
    C147   C145      1.37442      .   S
    C102   H2        1.08491      .   S
    C191   H90       1.08481      .   S
    C190   H89       1.08480      .   S
    C190   C189      1.37707      .   S
    C101   H1        1.08486  1_655   S
    C101   C100      1.37697      .   S
    N248   C189      1.38510      .   S
    N197   C100      1.38511      .   S
    N225   C146      1.34893      .   S
    N233   C158      1.34890      .   S
    C189   H88       1.08439      .   S
    C100   H0        1.08464      .   S
    C145   H40       1.08480      .   S
    C145   N224      1.34522      .   S
    C157   H52       1.08474      .   S
    C157   N232      1.38564      .   S
    C146   N224      1.32711      .   S
    C146   H41       1.08554      .   S
    C158   H53       1.08560      .   S
    C158   N232      1.35033      .   S
    N251   C86       1.35031      .   S
    N251   C85       1.38500      .   S
    N200   C105      1.35032      .   S
    N200   C104      1.38511      .   S
    H5     C105      1.08551      .   S
    H93    C86       1.08553      .   S
    C105   N201      1.34910      .   S
    C86    N252      1.34892      .   S
    H92    C85       1.08458      .   S
    H4     C104      1.08461      .   S
    C85    C87       1.37554      .   S
    C104   C106      1.37416      .   S
    H50    C155      1.09528      .   S
    H38    C143      1.08478      .   S
    H48    C153      1.08462      .   S
    H36    C141      1.08463      .   S
    H46    C151      1.08651      .   S
    H58    C163      1.08519      .   S
    C153   N229      1.38512      .   S
    C153   C154      1.37691      .   S
    C141   N221      1.38513      .   S
    C141   C142      1.37689      .   S
    N201   C106      1.38436      .   S
    N252   C87       1.38467      .   S
    N229   C164      1.34879      .   S
    N221   C152      1.34875      .   S
    H49    C154      1.08488  1_655   S
    H37    C142      1.08476      .   S
    C154   N236      1.38498      .   S
    C142   N228      1.38491      .   S
    C143   N222      1.38581      .   S
    C143   C149      1.37672      .   S
    C155   N230      1.38579      .   S
    C155   C161      1.37563      .   S
    C106   H6        1.08597      .   S
    C87    H94       1.08462      .   S
    C151   N223      1.34861      .   S
    C151   N227      1.34888      .   S
    C163   N231      1.34870  1_565   S
    C163   N235      1.34846      .   S
    N222   C148      1.34886      .   S
    N230   C160      1.34888      .   S
    C152   N228      1.34878      .   S
    C152   H47       1.08509      .   S
    C164   N236      1.34878      .   S
    C164   H59       1.08507      .   S
    N223   C144      1.38543      .   S
    N231   C156      1.38522      .   S
    C161   H56       1.08507      .   S
    C161   N234      1.38635      .   S
    C149   H44       1.08492      .   S
    C149   N226      1.38533      .   S
    N235   C162      1.38563      .   S
    N227   C150      1.38542      .   S
    C148   N226      1.34886      .   S
    C148   H43       1.08512      .   S
    C160   N234      1.34886      .   S
    C160   H55       1.08511      .   S
    H21    C126      1.08479      .   S
    H81    C186      1.08485      .   S
    C156   C162      1.37689  1_545   S
    C156   H51       1.08485      .   S
    C144   C150      1.37673      .   S
    C144   H39       1.08480      .   S
    C162   H57       1.08489      .   S
    C150   H45       1.08476      .   S
    H15    C115      1.08484      .   S
    H75    C180      1.08482      .   S
    C126   C115      1.37691  1_565   S
    C126   N211      1.38540      .   S
    C186   C180      1.37675      .   S
    C186   N246      1.38537      .   S
    H79    C184      1.08687      .   S
    H19    C124      1.08520      .   S
    N245   C184      1.34891      .   S
    N245   C185      1.38538      .   S
    N210   C124      1.34892      .   S
    N210   C125      1.38531      .   S
    C180   N118      1.38520      .   S
    C115   N207      1.38527      .   S
    C124   N206      1.34879      .   S
    C184   N117      1.34886      .   S
    N246   C187      1.34887      .   S
    N211   C127      1.34889      .   S
    H80    C185      1.08492      .   S
    H20    C125      1.08490      .   S
    H66    C171      1.08464      .   S
    H30    C135      1.08422      .   S
    C185   C179      1.37674      .   S
    C125   C114      1.37679      .   S
    H83    C188      1.08508      .   S
    H23    C128      1.08509      .   S
    N118   C187      1.34864      .   S
    N207   C127      1.34872  1_545   S
    N247   C188      1.34879      .   S
    N247   C178      1.38498      .   S
    N212   C128      1.34880      .   S
    N212   C113      1.38467      .   S
    C188   N116      1.34880      .   S
    C128   N205      1.34876      .   S
    N206   C114      1.38579      .   S
    N117   C179      1.38579      .   S
    C187   H82       1.08516      .   S
    C127   H22       1.08510      .   S
    C171   N241      1.38465      .   S
    C171   C169      1.37555      .   S
    C135   N217      1.38475      .   S
    C135   C133      1.37576      .   S
    C179   H74       1.08474      .   S
    C114   H14       1.08484      .   S
    C113   H13       1.08480      .   S
    C113   C112      1.37698      .   S
    C178   H73       1.08485  1_655   S
    C178   C177      1.37691      .   S
    N116   C177      1.38512      .   S
    N205   C112      1.38501      .   S
    N241   C170      1.34894      .   S
    N217   C134      1.34890      .   S
    C112   H12       1.08490      .   S
    C177   H72       1.08460      .   S
    C169   H64       1.08459      .   S
    C169   N240      1.38493      .   S
    C133   H28       1.08461      .   S
    C133   N216      1.38506      .   S
    C170   H65       1.08559      .   S
    C170   N240      1.35032      .   S
    C134   H29       1.08555      .   S
    C134   N216      1.35031      .   S
