# CIF file generated by openbabel 2.4.90, see http://openbabel.sf.net
data_I
_chemical_name_common ''
_cell_length_a 15.826
_cell_length_b 15.805
_cell_length_c 18.637
_cell_angle_alpha 90
_cell_angle_beta 90.002
_cell_angle_gamma 89.996
_space_group_name_H-M_alt 'P 1'
_space_group_name_Hall 'P 1'
loop_
    _symmetry_equiv_pos_as_xyz
    x,y,z
loop_
    _atom_site_label
    _atom_site_type_symbol
    _atom_site_fract_x
    _atom_site_fract_y
    _atom_site_fract_z
    _atom_site_occupancy
    C0      C    0.69610   0.85890   0.40284   1.000
    C1      C    0.50382   0.83296   0.68120   1.000
    C2      C    0.80388   0.14107   0.90283   1.000
    C3      C    0.99617   0.16702   0.18127   1.000
    C4      C    0.30389   0.35891   0.09715   1.000
    C5      C    0.49615   0.33297   0.81873   1.000
    C6      C    0.19609   0.64106   0.59715   1.000
    C7      C    0.00382   0.66701   0.31872   1.000
    C8      C    0.30388   0.14108   0.59715   1.000
    C9      C    0.49616   0.16702   0.31873   1.000
    C10     C    0.19610   0.85890   0.09715   1.000
    C11     C    0.00381   0.83295   0.81870   1.000
    C12     C    0.69609   0.64106   0.90283   1.000
    C13     C    0.50383   0.66700   0.18125   1.000
    C14     C    0.80389   0.35891   0.40283   1.000
    C15     C    0.99616   0.33297   0.68126   1.000
    C16     C    0.88227   0.95268   0.41865   1.000
    C17     C    0.02612   0.86333   0.38013   1.000
    C18     C    0.66835   0.65257   0.42331   1.000
    C19     C    0.73730   0.95482   0.25334   1.000
    C20     C    0.78226   0.92092   0.55212   1.000
    C21     C    0.54201   0.81722   0.50950   1.000
    C22     C    0.69217   0.90811   0.67965   1.000
    C23     C    0.57319   0.82518   0.27113   1.000
    C24     C    0.57828   0.56456   0.31947   1.000
    C25     C    0.63753   0.09014   0.20927   1.000
    C26     C    0.55830   0.00982   0.41410   1.000
    C27     C    0.81155   0.71123   0.34363   1.000
    C28     C    0.61771   0.04725   0.91854   1.000
    C29     C    0.47387   0.13661   0.88003   1.000
    C30     C    0.83172   0.34738   0.92336   1.000
    C31     C    0.76266   0.04517   0.75333   1.000
    C32     C    0.71775   0.07901   0.05211   1.000
    C33     C    0.95793   0.18285   0.00953   1.000
    C34     C    0.80784   0.09183   0.17965   1.000
    C35     C    0.92674   0.17480   0.77109   1.000
    C36     C    0.92179   0.43540   0.81954   1.000
    C37     C    0.86245   0.90986   0.70925   1.000
    C38     C    0.94163   0.99012   0.91412   1.000
    C39     C    0.68841   0.28880   0.84372   1.000
    C40     C    0.11770   0.45270   0.08134   1.000
    C41     C    0.97386   0.36335   0.11980   1.000
    C42     C    0.33148   0.15255   0.07675   1.000
    C43     C    0.26266   0.45486   0.24664   1.000
    C44     C    0.21778   0.42117   0.94789   1.000
    C45     C    0.45789   0.31710   0.99046   1.000
    C46     C    0.30787   0.40836   0.82036   1.000
    C47     C    0.42689   0.32519   0.22879   1.000
    C48     C    0.42154   0.06453   0.18059   1.000
    C49     C    0.36242   0.59016   0.29070   1.000
    C50     C    0.44171   0.50979   0.08590   1.000
    C51     C    0.18844   0.21126   0.15641   1.000
    C52     C    0.38225   0.54724   0.58146   1.000
    C53     C    0.52609   0.63659   0.61998   1.000
    C54     C    0.16825   0.84738   0.57662   1.000
    C55     C    0.23731   0.54514   0.74665   1.000
    C56     C    0.28215   0.57873   0.44790   1.000
    C57     C    0.04211   0.68295   0.49044   1.000
    C58     C    0.19207   0.59156   0.32037   1.000
    C59     C    0.07318   0.67480   0.72885   1.000
    C60     C    0.07818   0.93541   0.68045   1.000
    C61     C    0.13754   0.40984   0.79072   1.000
    C62     C    0.05829   0.49016   0.58580   1.000
    C63     C    0.31154   0.78878   0.65631   1.000
    C64     C    0.11770   0.04730   0.58133   1.000
    C65     C    0.97385   0.13664   0.61980   1.000
    C66     C    0.33159   0.34741   0.57600   1.000
    C67     C    0.26268   0.04517   0.74665   1.000
    C68     C    0.21771   0.07907   0.44786   1.000
    C69     C    0.45796   0.18275   0.49049   1.000
    C70     C    0.30780   0.09187   0.32033   1.000
    C71     C    0.42679   0.17480   0.72885   1.000
    C72     C    0.42166   0.43543   0.68053   1.000
    C73     C    0.36246   0.90985   0.79072   1.000
    C74     C    0.44166   0.99015   0.58588   1.000
    C75     C    0.18842   0.28874   0.65636   1.000
    C76     C    0.38226   0.95272   0.08142   1.000
    C77     C    0.52611   0.86337   0.11993   1.000
    C78     C    0.16823   0.65261   0.07662   1.000
    C79     C    0.23730   0.95481   0.24660   1.000
    C80     C    0.28223   0.92096   0.94787   1.000
    C81     C    0.04204   0.81714   0.99046   1.000
    C82     C    0.19214   0.90814   0.82033   1.000
    C83     C    0.07325   0.82518   0.22890   1.000
    C84     C    0.07816   0.56458   0.18043   1.000
    C85     C    0.13752   0.09012   0.29073   1.000
    C86     C    0.05834   0.00986   0.08586   1.000
    C87     C    0.31156   0.71119   0.15628   1.000
    C88     C    0.88228   0.54729   0.91865   1.000
    C89     C    0.02611   0.63663   0.88012   1.000
    C90     C    0.66847   0.84743   0.92324   1.000
    C91     C    0.73730   0.54513   0.75334   1.000
    C92     C    0.78220   0.57881   0.05210   1.000
    C93     C    0.54208   0.68287   0.00952   1.000
    C94     C    0.69210   0.59161   0.17963   1.000
    C95     C    0.57308   0.67479   0.77100   1.000
    C96     C    0.57841   0.93544   0.81940   1.000
    C97     C    0.63754   0.40982   0.70927   1.000
    C98     C    0.55827   0.49019   0.91408   1.000
    C99     C    0.81153   0.78871   0.84356   1.000
    C100    C    0.61771   0.45273   0.41850   1.000
    C101    C    0.47388   0.36339   0.38002   1.000
    C102    C    0.83170   0.15260   0.42335   1.000
    C103    C    0.76266   0.45485   0.25334   1.000
    C104    C    0.71781   0.42123   0.55208   1.000
    C105    C    0.95787   0.31704   0.50954   1.000
    C106    C    0.80790   0.40840   0.67962   1.000
    C107    C    0.92678   0.32518   0.27113   1.000
    C108    C    0.92178   0.06457   0.31953   1.000
    C109    C    0.86243   0.59014   0.20926   1.000
    C110    C    0.94168   0.50981   0.41409   1.000
    C111    C    0.68843   0.21121   0.34367   1.000
    C112    C    0.88874   0.88912   0.39740   1.000
    C113    C    0.96015   0.84484   0.37810   1.000
    C114    C    0.63517   0.67548   0.37622   1.000
    C115    C    0.68519   0.98629   0.28013   1.000
    C116    C    0.71856   0.89846   0.56204   1.000
    C117    C    0.59476   0.84494   0.53837   1.000
    C118    C    0.67400   0.89221   0.62510   1.000
    C119    C    0.58673   0.76605   0.29840   1.000
    C120    C    0.59044   0.63182   0.32481   1.000
    C121    C    0.63578   0.05321   0.25831   1.000
    C122    C    0.59355   0.01326   0.36424   1.000
    C123    C    0.85041   0.76484   0.35892   1.000
    C124    C    0.61124   0.11084   0.89730   1.000
    C125    C    0.53983   0.15511   0.87800   1.000
    C126    C    0.86487   0.32447   0.87626   1.000
    C127    C    0.81477   0.01370   0.78013   1.000
    C128    C    0.78143   0.10150   0.06203   1.000
    C129    C    0.90520   0.15509   0.03839   1.000
    C130    C    0.82599   0.10775   0.12510   1.000
    C131    C    0.91323   0.23392   0.79839   1.000
    C132    C    0.90960   0.36814   0.82485   1.000
    C133    C    0.86419   0.94677   0.75830   1.000
    C134    C    0.90639   0.98669   0.86426   1.000
    C135    C    0.64955   0.23517   0.85896   1.000
    C136    C    0.11123   0.38914   0.10260   1.000
    C137    C    0.03984   0.34487   0.12189   1.000
    C138    C    0.36472   0.17546   0.12380   1.000
    C139    C    0.31478   0.48631   0.21985   1.000
    C140    C    0.28144   0.39862   0.93796   1.000
    C141    C    0.40518   0.34492   0.96160   1.000
    C142    C    0.32600   0.39238   0.87480   1.000
    C143    C    0.41328   0.26605   0.20156   1.000
    C144    C    0.40944   0.13180   0.17522   1.000
    C145    C    0.36419   0.55323   0.24167   1.000
    C146    C    0.40644   0.51325   0.13575   1.000
    C147    C    0.14957   0.26487   0.14111   1.000
    C148    C    0.38872   0.61082   0.60267   1.000
    C149    C    0.46013   0.65510   0.62195   1.000
    C150    C    0.13509   0.82448   0.62371   1.000
    C151    C    0.18520   0.51368   0.71986   1.000
    C152    C    0.21850   0.60131   0.43790   1.000
    C153    C    0.09480   0.65510   0.46159   1.000
    C154    C    0.17394   0.60757   0.37482   1.000
    C155    C    0.08670   0.73392   0.70157   1.000
    C156    C    0.09036   0.86815   0.67512   1.000
    C157    C    0.13578   0.44677   0.74168   1.000
    C158    C    0.09355   0.48672   0.63574   1.000
    C159    C    0.35040   0.73515   0.64106   1.000
    C160    C    0.11123   0.11085   0.60258   1.000
    C161    C    0.03982   0.15513   0.62187   1.000
    C162    C    0.36478   0.32450   0.62377   1.000
    C163    C    0.31479   0.01370   0.71985   1.000
    C164    C    0.28141   0.10153   0.43790   1.000
    C165    C    0.40521   0.15504   0.46161   1.000
    C166    C    0.32597   0.10777   0.37480   1.000
    C167    C    0.41323   0.23393   0.70159   1.000
    C168    C    0.40950   0.36816   0.67510   1.000
    C169    C    0.36420   0.94677   0.74167   1.000
    C170    C    0.40642   0.98671   0.63574   1.000
    C171    C    0.14956   0.23514   0.64107   1.000
    C172    C    0.38874   0.88914   0.10260   1.000
    C173    C    0.46014   0.84486   0.12190   1.000
    C174    C    0.13509   0.67551   0.12372   1.000
    C175    C    0.18520   0.98628   0.21986   1.000
    C176    C    0.21854   0.89847   0.93795   1.000
    C177    C    0.09477   0.84489   0.96159   1.000
    C178    C    0.17399   0.89222   0.87480   1.000
    C179    C    0.08675   0.76606   0.20160   1.000
    C180    C    0.09036   0.63184   0.17512   1.000
    C181    C    0.13578   0.05321   0.24168   1.000
    C182    C    0.09358   0.01329   0.13570   1.000
    C183    C    0.35042   0.76482   0.14103   1.000
    C184    C    0.88874   0.61084   0.89739   1.000
    C185    C    0.96014   0.65512   0.87810   1.000
    C186    C    0.63524   0.82451   0.87619   1.000
    C187    C    0.68518   0.51368   0.78013   1.000
    C188    C    0.71853   0.60135   0.06202   1.000
    C189    C    0.59480   0.65506   0.03838   1.000
    C190    C    0.67397   0.60759   0.12517   1.000
    C191    C    0.58669   0.73392   0.79843   1.000
    C192    C    0.59052   0.86818   0.82477   1.000
    C193    C    0.63577   0.44676   0.75831   1.000
    C194    C    0.59353   0.48673   0.86423   1.000
    C195    C    0.85040   0.73511   0.85887   1.000
    C196    C    0.61124   0.38916   0.39732   1.000
    C197    C    0.53984   0.34488   0.37800   1.000
    C198    C    0.86487   0.17550   0.37626   1.000
    C199    C    0.81477   0.48631   0.28013   1.000
    C200    C    0.78147   0.39865   0.56201   1.000
    C201    C    0.90517   0.34489   0.53839   1.000
    C202    C    0.82602   0.39240   0.62516   1.000
    C203    C    0.91326   0.26606   0.29841   1.000
    C204    C    0.90960   0.13183   0.32485   1.000
    C205    C    0.86419   0.55321   0.25831   1.000
    C206    C    0.90643   0.51326   0.36424   1.000
    C207    C    0.64957   0.26484   0.35892   1.000
    C208    C    0.81916   0.83797   0.38512   1.000
    C209    C    0.63263   0.76080   0.35922   1.000
    C210    C    0.65814   0.96119   0.34754   1.000
    C211    C    0.66801   0.86839   0.50699   1.000
    C212    C    0.59540   0.85825   0.60987   1.000
    C213    C    0.55963   0.68975   0.27554   1.000
    C214    C    0.57757   0.07006   0.31196   1.000
    C215    C    0.93541   0.76588   0.35370   1.000
    C216    C    0.68081   0.16201   0.88512   1.000
    C217    C    0.86736   0.23916   0.85922   1.000
    C218    C    0.84181   0.03877   0.84755   1.000
    C219    C    0.83197   0.13162   0.00700   1.000
    C220    C    0.90458   0.14176   0.10988   1.000
    C221    C    0.94037   0.31022   0.77556   1.000
    C222    C    0.92238   0.92991   0.81196   1.000
    C223    C    0.56456   0.23411   0.85370   1.000
    C224    C    0.18082   0.33800   0.11489   1.000
    C225    C    0.36734   0.26079   0.14076   1.000
    C226    C    0.34185   0.46120   0.15245   1.000
    C227    C    0.33195   0.36843   0.99299   1.000
    C228    C    0.40457   0.35830   0.89012   1.000
    C229    C    0.44034   0.18975   0.22440   1.000
    C230    C    0.42242   0.57006   0.18803   1.000
    C231    C    0.06458   0.26590   0.14630   1.000
    C232    C    0.31915   0.66200   0.61490   1.000
    C233    C    0.13258   0.73916   0.64074   1.000
    C234    C    0.15814   0.53877   0.65244   1.000
    C235    C    0.16801   0.63155   0.49000   1.000
    C236    C    0.09540   0.64170   0.39011   1.000
    C237    C    0.05958   0.81022   0.72440   1.000
    C238    C    0.07757   0.42992   0.68803   1.000
    C239    C    0.43540   0.73410   0.64630   1.000
    C240    C    0.18081   0.16200   0.61486   1.000
    C241    C    0.36733   0.23918   0.64077   1.000
    C242    C    0.34183   0.03879   0.65244   1.000
    C243    C    0.33196   0.13159   0.49299   1.000
    C244    C    0.40458   0.14173   0.39012   1.000
    C245    C    0.44033   0.31023   0.72444   1.000
    C246    C    0.42241   0.92992   0.68800   1.000
    C247    C    0.06456   0.23410   0.64629   1.000
    C248    C    0.31916   0.83797   0.11486   1.000
    C249    C    0.13261   0.76082   0.14076   1.000
    C250    C    0.15816   0.96121   0.15243   1.000
    C251    C    0.16801   0.86836   0.99298   1.000
    C252    C    0.09539   0.85822   0.89010   1.000
    C253    C    0.05960   0.68976   0.22442   1.000
    C254    C    0.07759   0.07007   0.18802   1.000
    C255    C    0.43542   0.76587   0.14628   1.000
    C256    C    0.81915   0.66198   0.88509   1.000
    C257    C    0.63263   0.73918   0.85923   1.000
    C258    C    0.65812   0.53878   0.84753   1.000
    C259    C    0.66802   0.63154   0.00699   1.000
    C260    C    0.59540   0.64167   0.10986   1.000
    C261    C    0.55963   0.81023   0.77555   1.000
    C262    C    0.57755   0.42993   0.81195   1.000
    C263    C    0.93540   0.73408   0.85366   1.000
    C264    C    0.68082   0.33799   0.38509   1.000
    C265    C    0.86738   0.26081   0.35924   1.000
    C266    C    0.84183   0.46121   0.34754   1.000
    C267    C    0.83196   0.36843   0.50699   1.000
    C268    C    0.90457   0.35828   0.60987   1.000
    C269    C    0.94038   0.18976   0.27558   1.000
    C270    C    0.92241   0.57006   0.31195   1.000
    C271    C    0.56457   0.26589   0.35367   1.000
    O272    O    0.63141   0.64330   0.02268   1.000
    O273    O    0.69328   0.61645   0.03451   1.000
    O274    O    0.68206   0.63630   0.95491   1.000
    O275    O    0.86858   0.14335   0.02269   1.000
    O276    O    0.80670   0.11656   0.03452   1.000
    O277    O    0.81792   0.13635   0.95491   1.000
    O278    O    0.56844   0.66896   0.02395   1.000
    O279    O    0.93157   0.16897   0.02396   1.000
    O280    O    0.59510   0.64836   0.07412   1.000
    O281    O    0.90489   0.14843   0.07414   1.000
    O282    O    0.75036   0.59008   0.05706   1.000
    O283    O    0.74959   0.09026   0.05707   1.000
    O284    O    0.69625   0.60447   0.09359   1.000
    O285    O    0.80371   0.10463   0.09356   1.000
    O286    O    0.15166   0.66406   0.10017   1.000
    O287    O    0.34810   0.16401   0.10028   1.000
    O288    O    0.11447   0.42092   0.09197   1.000
    O289    O    0.38550   0.92093   0.09201   1.000
    O290    O    0.07596   0.01158   0.11078   1.000
    O291    O    0.42407   0.51152   0.11083   1.000
    O292    O    0.24235   0.34845   0.10602   1.000
    O293    O    0.33561   0.30985   0.11895   1.000
    O294    O    0.32287   0.41005   0.12480   1.000
    O295    O    0.31792   0.36367   0.04507   1.000
    O296    O    0.25763   0.84844   0.10601   1.000
    O297    O    0.16435   0.80986   0.11895   1.000
    O298    O    0.17713   0.91006   0.12479   1.000
    O299    O    0.18205   0.86363   0.04506   1.000
    O300    O    0.35395   0.86355   0.10873   1.000
    O301    O    0.42444   0.86700   0.11225   1.000
    O302    O    0.14603   0.36357   0.10874   1.000
    O303    O    0.07554   0.36700   0.11224   1.000
    O304    O    0.63469   0.62463   0.11751   1.000
    O305    O    0.54962   0.65434   0.14556   1.000
    O306    O    0.86528   0.12476   0.11749   1.000
    O307    O    0.95037   0.15439   0.14557   1.000
    O308    O    0.33479   0.80139   0.12794   1.000
    O309    O    0.16520   0.30143   0.12800   1.000
    O310    O    0.00685   0.35411   0.12085   1.000
    O311    O    0.49313   0.85411   0.12091   1.000
    O312    O    0.05221   0.30538   0.13410   1.000
    O313    O    0.44778   0.80536   0.13409   1.000
    O314    O    0.13385   0.71816   0.13224   1.000
    O315    O    0.11272   0.65367   0.14942   1.000
    O316    O    0.36603   0.21813   0.13228   1.000
    O317    O    0.38708   0.15363   0.14951   1.000
    O318    O    0.81691   0.09979   0.15237   1.000
    O319    O    0.68304   0.59960   0.15240   1.000
    O320    O    0.12587   0.98725   0.14406   1.000
    O321    O    0.08559   0.04168   0.16186   1.000
    O322    O    0.37415   0.48722   0.14410   1.000
    O323    O    0.41443   0.54165   0.16189   1.000
    O324    O    0.39031   0.26342   0.17116   1.000
    O325    O    0.10968   0.76344   0.17118   1.000
    O326    O    0.39292   0.76534   0.14365   1.000
    O327    O    0.33099   0.73800   0.14865   1.000
    O328    O    0.10708   0.26538   0.14370   1.000
    O329    O    0.16901   0.23807   0.14876   1.000
    O330    O    0.46962   0.71643   0.16376   1.000
    O331    O    0.03037   0.21646   0.16378   1.000
    O332    O    0.17168   0.97375   0.18615   1.000
    O333    O    0.32832   0.47375   0.18615   1.000
    O334    O    0.08426   0.59821   0.17777   1.000
    O335    O    0.07498   0.66080   0.19977   1.000
    O336    O    0.41549   0.09816   0.17791   1.000
    O337    O    0.42489   0.16077   0.19981   1.000
    O338    O    0.46312   0.61853   0.18464   1.000
    O339    O    0.53173   0.67838   0.22839   1.000
    O340    O    0.03688   0.11855   0.18464   1.000
    O341    O    0.96828   0.17839   0.22842   1.000
    O342    O    0.10668   0.06164   0.21485   1.000
    O343    O    0.39331   0.56164   0.21485   1.000
    O344    O    0.42681   0.22790   0.21298   1.000
    O345    O    0.42009   0.29562   0.21517   1.000
    O346    O    0.07317   0.72791   0.21301   1.000
    O347    O    0.08000   0.79562   0.21525   1.000
    O348    O    0.86331   0.57168   0.23378   1.000
    O349    O    0.63665   0.07168   0.23379   1.000
    O350    O    0.33949   0.51977   0.23076   1.000
    O351    O    0.28872   0.47058   0.23324   1.000
    O352    O    0.16049   0.01974   0.23077   1.000
    O353    O    0.21125   0.97054   0.23323   1.000
    O354    O    0.46825   0.17838   0.27157   1.000
    O355    O    0.03171   0.67839   0.27157   1.000
    O356    O    0.36331   0.57170   0.26619   1.000
    O357    O    0.13665   0.07166   0.26620   1.000
    O358    O    0.78871   0.47058   0.26673   1.000
    O359    O    0.71125   0.97055   0.26673   1.000
    O360    O    0.66048   0.01975   0.26922   1.000
    O361    O    0.60667   0.06164   0.28513   1.000
    O362    O    0.83948   0.51976   0.26922   1.000
    O363    O    0.89330   0.56163   0.28513   1.000
    O364    O    0.92002   0.29562   0.28477   1.000
    O365    O    0.57996   0.79561   0.28476   1.000
    O366    O    0.57318   0.72790   0.28697   1.000
    O367    O    0.57504   0.66079   0.30017   1.000
    O368    O    0.92682   0.22791   0.28700   1.000
    O369    O    0.92499   0.16080   0.30021   1.000
    O370    O    0.67167   0.97374   0.31383   1.000
    O371    O    0.82830   0.47376   0.31383   1.000
    O372    O    0.60968   0.76342   0.32881   1.000
    O373    O    0.89032   0.26344   0.32883   1.000
    O374    O    0.96311   0.61853   0.31533   1.000
    O375    O    0.91442   0.54166   0.33809   1.000
    O376    O    0.53686   0.11854   0.31534   1.000
    O377    O    0.58556   0.04166   0.33810   1.000
    O378    O    0.96961   0.71644   0.33621   1.000
    O379    O    0.04961   0.65435   0.35441   1.000
    O380    O    0.53037   0.21645   0.33620   1.000
    O381    O    0.45037   0.15437   0.35442   1.000
    O382    O    0.58436   0.59819   0.32214   1.000
    O383    O    0.91569   0.09820   0.32219   1.000
    O384    O    0.31689   0.09982   0.34756   1.000
    O385    O    0.18301   0.59956   0.34759   1.000
    O386    O    0.61280   0.65365   0.35051   1.000
    O387    O    0.88724   0.15367   0.35056   1.000
    O388    O    0.83098   0.73803   0.35128   1.000
    O389    O    0.66900   0.23802   0.35129   1.000
    O390    O    0.87413   0.48723   0.35589   1.000
    O391    O    0.82286   0.41006   0.37518   1.000
    O392    O    0.62585   0.98722   0.35589   1.000
    O393    O    0.67712   0.91004   0.37519   1.000
    O394    O    0.60707   0.26536   0.35629   1.000
    O395    O    0.55221   0.30538   0.36584   1.000
    O396    O    0.89291   0.76536   0.35631   1.000
    O397    O    0.94778   0.80536   0.36590   1.000
    O398    O    0.83479   0.80140   0.37202   1.000
    O399    O    0.66520   0.30141   0.37201   1.000
    O400    O    0.63390   0.71814   0.36772   1.000
    O401    O    0.66437   0.80985   0.38103   1.000
    O402    O    0.86613   0.21816   0.36775   1.000
    O403    O    0.83563   0.30986   0.38104   1.000
    O404    O    0.57593   0.01154   0.38917   1.000
    O405    O    0.92406   0.51154   0.38917   1.000
    O406    O    0.36527   0.12475   0.38246   1.000
    O407    O    0.30369   0.10465   0.40635   1.000
    O408    O    0.13467   0.62463   0.38246   1.000
    O409    O    0.19622   0.60444   0.40636   1.000
    O410    O    0.65176   0.66403   0.39976   1.000
    O411    O    0.84829   0.16405   0.39980   1.000
    O412    O    0.50686   0.35413   0.37901   1.000
    O413    O    0.57554   0.36702   0.38766   1.000
    O414    O    0.99313   0.85409   0.37912   1.000
    O415    O    0.92444   0.86698   0.38775   1.000
    O416    O    0.64603   0.36357   0.39120   1.000
    O417    O    0.74236   0.34845   0.39396   1.000
    O418    O    0.85395   0.86355   0.39126   1.000
    O419    O    0.75763   0.84844   0.39398   1.000
    O420    O    0.09510   0.64840   0.42585   1.000
    O421    O    0.40490   0.14838   0.42587   1.000
    O422    O    0.61448   0.42094   0.40791   1.000
    O423    O    0.88551   0.92090   0.40802   1.000
    O424    O    0.81792   0.36367   0.45491   1.000
    O425    O    0.68205   0.86364   0.45492   1.000
    O426    O    0.25033   0.59002   0.44290   1.000
    O427    O    0.19326   0.61643   0.46395   1.000
    O428    O    0.24956   0.09030   0.44288   1.000
    O429    O    0.30668   0.11656   0.46544   1.000
    O430    O    0.13141   0.64332   0.47579   1.000
    O431    O    0.06846   0.66902   0.47601   1.000
    O432    O    0.43159   0.16890   0.47605   1.000
    O433    O    0.36859   0.14331   0.47730   1.000
    O434    O    0.18205   0.63631   0.54357   1.000
    O435    O    0.31792   0.13634   0.54507   1.000
    O436    O    0.86857   0.35666   0.52269   1.000
    O437    O    0.80671   0.38354   0.53450   1.000
    O438    O    0.63139   0.85666   0.52268   1.000
    O439    O    0.69329   0.88342   0.53451   1.000
    O440    O    0.56839   0.83108   0.52393   1.000
    O441    O    0.93152   0.33096   0.52397   1.000
    O442    O    0.59508   0.85160   0.57412   1.000
    O443    O    0.90487   0.35158   0.57413   1.000
    O444    O    0.74964   0.40994   0.55705   1.000
    O445    O    0.75041   0.90969   0.55708   1.000
    O446    O    0.80375   0.39553   0.59359   1.000
    O447    O    0.69628   0.89534   0.59357   1.000
    O448    O    0.34818   0.33596   0.59988   1.000
    O449    O    0.15167   0.83593   0.60017   1.000
    O450    O    0.11446   0.07908   0.59196   1.000
    O451    O    0.38549   0.57903   0.59206   1.000
    O452    O    0.07592   0.48844   0.61077   1.000
    O453    O    0.42404   0.98843   0.61081   1.000
    O454    O    0.25762   0.65153   0.60603   1.000
    O455    O    0.16434   0.69012   0.61894   1.000
    O456    O    0.17711   0.58992   0.62479   1.000
    O457    O    0.24234   0.15154   0.60600   1.000
    O458    O    0.33560   0.19013   0.61896   1.000
    O459    O    0.32286   0.08993   0.62479   1.000
    O460    O    0.14602   0.13643   0.60872   1.000
    O461    O    0.07553   0.13299   0.61223   1.000
    O462    O    0.35393   0.63641   0.60879   1.000
    O463    O    0.42442   0.63296   0.61231   1.000
    O464    O    0.63470   0.87523   0.61748   1.000
    O465    O    0.54961   0.84561   0.64554   1.000
    O466    O    0.86530   0.37534   0.61751   1.000
    O467    O    0.95037   0.34562   0.64556   1.000
    O468    O    0.16518   0.19857   0.62796   1.000
    O469    O    0.33477   0.69857   0.62798   1.000
    O470    O    0.00684   0.14589   0.62083   1.000
    O471    O    0.49311   0.64584   0.62096   1.000
    O472    O    0.05219   0.19461   0.63408   1.000
    O473    O    0.44776   0.69460   0.63412   1.000
    O474    O    0.13384   0.78182   0.63222   1.000
    O475    O    0.11272   0.84631   0.64941   1.000
    O476    O    0.36605   0.28184   0.63227   1.000
    O477    O    0.38714   0.34633   0.64944   1.000
    O478    O    0.68308   0.90016   0.65237   1.000
    O479    O    0.81696   0.40040   0.65239   1.000
    O480    O    0.12584   0.51274   0.64409   1.000
    O481    O    0.08556   0.45832   0.66189   1.000
    O482    O    0.37412   0.01275   0.64409   1.000
    O483    O    0.41441   0.95831   0.66187   1.000
    O484    O    0.10964   0.73654   0.67115   1.000
    O485    O    0.39028   0.23656   0.67118   1.000
    O486    O    0.39290   0.73462   0.64368   1.000
    O487    O    0.33097   0.76196   0.64868   1.000
    O488    O    0.10706   0.23462   0.64368   1.000
    O489    O    0.16899   0.26194   0.64871   1.000
    O490    O    0.03036   0.28353   0.66378   1.000
    O491    O    0.46961   0.78353   0.66375   1.000
    O492    O    0.17167   0.52622   0.68615   1.000
    O493    O    0.32831   0.02624   0.68615   1.000
    O494    O    0.41558   0.40179   0.67782   1.000
    O495    O    0.42492   0.33920   0.69977   1.000
    O496    O    0.08427   0.90178   0.67778   1.000
    O497    O    0.07497   0.83918   0.69976   1.000
    O498    O    0.46311   0.88144   0.68460   1.000
    O499    O    0.53172   0.82159   0.72837   1.000
    O500    O    0.03686   0.38144   0.68464   1.000
    O501    O    0.96826   0.32159   0.72841   1.000
    O502    O    0.39331   0.93834   0.71483   1.000
    O503    O    0.10667   0.43834   0.71486   1.000
    O504    O    0.07314   0.77207   0.71298   1.000
    O505    O    0.07994   0.70436   0.71521   1.000
    O506    O    0.42678   0.27208   0.71301   1.000
    O507    O    0.42001   0.20437   0.71522   1.000
    O508    O    0.86332   0.92832   0.73378   1.000
    O509    O    0.63665   0.42829   0.73379   1.000
    O510    O    0.33950   0.98023   0.73076   1.000
    O511    O    0.28873   0.02943   0.73325   1.000
    O512    O    0.16049   0.48022   0.73077   1.000
    O513    O    0.21125   0.52941   0.73325   1.000
    O514    O    0.03169   0.82159   0.77155   1.000
    O515    O    0.46824   0.32160   0.77158   1.000
    O516    O    0.36333   0.92831   0.76619   1.000
    O517    O    0.13666   0.42830   0.76620   1.000
    O518    O    0.78872   0.02943   0.76673   1.000
    O519    O    0.71124   0.52940   0.76673   1.000
    O520    O    0.83948   0.98023   0.76921   1.000
    O521    O    0.89329   0.93834   0.78513   1.000
    O522    O    0.66048   0.48022   0.76922   1.000
    O523    O    0.60666   0.43834   0.78513   1.000
    O524    O    0.57988   0.70436   0.78472   1.000
    O525    O    0.91998   0.20436   0.78474   1.000
    O526    O    0.57316   0.77208   0.78699   1.000
    O527    O    0.57508   0.83920   0.80016   1.000
    O528    O    0.92680   0.27207   0.78698   1.000
    O529    O    0.92498   0.33918   0.80020   1.000
    O530    O    0.67165   0.52623   0.81383   1.000
    O531    O    0.82829   0.02623   0.81384   1.000
    O532    O    0.89029   0.23654   0.82881   1.000
    O533    O    0.60966   0.73655   0.82883   1.000
    O534    O    0.53685   0.38145   0.81534   1.000
    O535    O    0.58554   0.45833   0.83809   1.000
    O536    O    0.96310   0.88143   0.81533   1.000
    O537    O    0.91439   0.95830   0.83811   1.000
    O538    O    0.96960   0.78352   0.83618   1.000
    O539    O    0.04960   0.84559   0.85440   1.000
    O540    O    0.53035   0.28354   0.83622   1.000
    O541    O    0.45036   0.34564   0.85442   1.000
    O542    O    0.58447   0.90181   0.82208   1.000
    O543    O    0.91570   0.40177   0.82220   1.000
    O544    O    0.18306   0.90018   0.84757   1.000
    O545    O    0.31694   0.40037   0.84758   1.000
    O546    O    0.61288   0.84634   0.85048   1.000
    O547    O    0.88724   0.34631   0.85056   1.000
    O548    O    0.83096   0.76191   0.85122   1.000
    O549    O    0.66898   0.26198   0.85134   1.000
    O550    O    0.62582   0.51276   0.85588   1.000
    O551    O    0.67711   0.58992   0.87518   1.000
    O552    O    0.87410   0.01273   0.85591   1.000
    O553    O    0.82284   0.08992   0.87519   1.000
    O554    O    0.89290   0.73459   0.85626   1.000
    O555    O    0.94777   0.69460   0.86588   1.000
    O556    O    0.60706   0.23464   0.85633   1.000
    O557    O    0.55219   0.19461   0.86585   1.000
    O558    O    0.83477   0.69855   0.87198   1.000
    O559    O    0.66518   0.19859   0.87204   1.000
    O560    O    0.86612   0.28182   0.86774   1.000
    O561    O    0.83562   0.19012   0.88103   1.000
    O562    O    0.63393   0.78185   0.86771   1.000
    O563    O    0.66436   0.69012   0.88103   1.000
    O564    O    0.57590   0.48846   0.88915   1.000
    O565    O    0.92401   0.98840   0.88919   1.000
    O566    O    0.13469   0.87522   0.88245   1.000
    O567    O    0.19627   0.89535   0.90637   1.000
    O568    O    0.36529   0.37534   0.88246   1.000
    O569    O    0.30372   0.39550   0.90638   1.000
    O570    O    0.65186   0.83597   0.89971   1.000
    O571    O    0.84830   0.33593   0.89981   1.000
    O572    O    0.50685   0.14586   0.87901   1.000
    O573    O    0.57553   0.13297   0.88765   1.000
    O574    O    0.99312   0.64587   0.87911   1.000
    O575    O    0.92444   0.63298   0.88774   1.000
    O576    O    0.85394   0.63641   0.89124   1.000
    O577    O    0.75762   0.65152   0.89396   1.000
    O578    O    0.64602   0.13642   0.89121   1.000
    O579    O    0.74235   0.15154   0.89397   1.000
    O580    O    0.09508   0.85156   0.92584   1.000
    O581    O    0.40487   0.35161   0.92586   1.000
    O582    O    0.61448   0.07904   0.90792   1.000
    O583    O    0.88551   0.57907   0.90802   1.000
    O584    O    0.25039   0.90972   0.94291   1.000
    O585    O    0.19328   0.88342   0.96547   1.000
    O586    O    0.24961   0.40990   0.94293   1.000
    O587    O    0.30670   0.38353   0.96548   1.000
    O588    O    0.06840   0.83102   0.97602   1.000
    O589    O    0.13139   0.85663   0.97728   1.000
    O590    O    0.43153   0.33101   0.97603   1.000
    O591    O    0.36856   0.35668   0.97730   1.000
loop_
    _geom_bond_atom_site_label_1
    _geom_bond_atom_site_label_2
    _geom_bond_distance
    _geom_bond_site_symmetry_2
    _ccdc_geom_bond_type
    C259   O272      0.67516      .   S
    C189   O272      0.67516      .   S
    C259   O273      0.69252      .   S
    C188   O273      0.69252      .   S
    C259   O274      0.99855  1_554   S
    C12    O274      0.99855      .   S
    C219   O275      0.67515      .   S
    C129   O275      0.67515      .   S
    C219   O276      0.69248      .   S
    C128   O276      0.69248      .   S
    C219   O277      0.99862  1_554   S
    C2     O277      0.99862      .   S
    C93    O278      0.54278      .   S
    C189   O278      0.54278      .   S
    C33    O279      0.54275      .   S
    C129   O279      0.54275      .   S
    C189   O280      0.67445      .   S
    C260   O280      0.67445      .   S
    C129   O281      0.67447      .   S
    C220   O281      0.67447      .   S
    C92    O282      0.54229      .   S
    C188   O282      0.54229      .   S
    C32    O283      0.54229      .   S
    C128   O283      0.54229      .   S
    C188   O284      0.68780      .   S
    C190   O284      0.68780      .   S
    C128   O285      0.68714      .   S
    C130   O285      0.68714      .   S
    C78    O286      0.54239      .   S
    C174   O286      0.54239      .   S
    C42    O287      0.54239      .   S
    C138   O287      0.54239      .   S
    C40    O288      0.54232      .   S
    C136   O288      0.54232      .   S
    C76    O289      0.54221      .   S
    C172   O289      0.54221      .   S
    C86    O290      0.54238      .   S
    C182   O290      0.54238      .   S
    C50    O291      0.54259      .   S
    C146   O291      0.54259      .   S
    C4     O292      1.00149      .   S
    C224   O292      1.00149      .   S
    C4     O293      1.00916      .   S
    C225   O293      1.00916      .   S
    C4     O294      1.00457      .   S
    C226   O294      1.00457      .   S
    C4     O295      0.99854      .   S
    C227   O295      0.99854  1_556   S
    C10    O296      1.00145      .   S
    C248   O296      1.00145      .   S
    C10    O297      1.00916      .   S
    C249   O297      1.00916      .   S
    C10    O298      1.00451      .   S
    C250   O298      1.00451      .   S
    C10    O299      0.99862      .   S
    C251   O299      0.99862  1_556   S
    C172   O300      0.69261      .   S
    C248   O300      0.69261      .   S
    C172   O301      0.68849      .   S
    C173   O301      0.68849      .   S
    C136   O302      0.69255      .   S
    C224   O302      0.69255      .   S
    C136   O303      0.68845      .   S
    C137   O303      0.68845      .   S
    C260   O304      0.69235      .   S
    C190   O304      0.69235      .   S
    C260   O305      1.00387      .   S
    C13    O305      1.00387      .   S
    C220   O306      0.69218      .   S
    C130   O306      0.69218      .   S
    C220   O307      1.00381      .   S
    C3     O307      1.00381      .   S
    C248   O308      0.67439      .   S
    C183   O308      0.67439      .   S
    C224   O309      0.67441      .   S
    C147   O309      0.67441      .   S
    C41    O310      0.54244  1_655   S
    C137   O310      0.54244      .   S
    C77    O311      0.54238      .   S
    C173   O311      0.54238      .   S
    C137   O312      0.69242      .   S
    C231   O312      0.69242      .   S
    C173   O313      0.69255      .   S
    C255   O313      0.69255      .   S
    C174   O314      0.69288      .   S
    C249   O314      0.69288      .   S
    C174   O315      0.68833      .   S
    C180   O315      0.68833      .   S
    C138   O316      0.69290      .   S
    C225   O316      0.69290      .   S
    C138   O317      0.68837      .   S
    C144   O317      0.68837      .   S
    C130   O318      0.54302      .   S
    C34    O318      0.54302      .   S
    C190   O319      0.54228      .   S
    C94    O319      0.54228      .   S
    C182   O320      0.67440  1_545   S
    C250   O320      0.67440      .   S
    C182   O321      0.67457      .   S
    C254   O321      0.67457      .   S
    C146   O322      0.67432      .   S
    C226   O322      0.67432      .   S
    C146   O323      0.67444      .   S
    C230   O323      0.67444      .   S
    C225   O324      0.67444      .   S
    C143   O324      0.67444      .   S
    C249   O325      0.67444      .   S
    C179   O325      0.67444      .   S
    C183   O326      0.67440      .   S
    C255   O326      0.67440      .   S
    C183   O327      0.54254      .   S
    C87    O327      0.54254      .   S
    C147   O328      0.67438      .   S
    C231   O328      0.67438      .   S
    C147   O329      0.54253      .   S
    C51    O329      0.54253      .   S
    C255   O330      1.00475      .   S
    C13    O330      1.00475      .   S
    C231   O331      1.00490      .   S
    C3     O331      1.00490  1_655   S
    C250   O332      0.69271      .   S
    C175   O332      0.69271      .   S
    C226   O333      0.69263      .   S
    C139   O333      0.69263      .   S
    C180   O334      0.54245      .   S
    C84    O334      0.54245      .   S
    C180   O335      0.69267      .   S
    C253   O335      0.69267      .   S
    C144   O336      0.54246      .   S
    C48    O336      0.54246      .   S
    C144   O337      0.69246      .   S
    C229   O337      0.69246      .   S
    C13    O338      1.00300      .   S
    C230   O338      1.00300      .   S
    C13    O339      0.99965      .   S
    C213   O339      0.99965      .   S
    C3     O340      1.00299  1_655   S
    C254   O340      1.00299      .   S
    C3     O341      0.99975      .   S
    C269   O341      0.99975      .   S
    C254   O342      0.69269      .   S
    C181   O342      0.69269      .   S
    C230   O343      0.69271      .   S
    C145   O343      0.69271      .   S
    C143   O344      0.67433      .   S
    C229   O344      0.67433      .   S
    C143   O345      0.54258      .   S
    C47    O345      0.54258      .   S
    C179   O346      0.67444      .   S
    C253   O346      0.67444      .   S
    C179   O347      0.54258      .   S
    C83    O347      0.54258      .   S
    C109   O348      0.54246      .   S
    C205   O348      0.54246      .   S
    C25    O349      0.54238      .   S
    C121   O349      0.54238      .   S
    C139   O350      0.68838      .   S
    C145   O350      0.68838      .   S
    C139   O351      0.54241      .   S
    C43    O351      0.54241      .   S
    C175   O352      0.68842  1_565   S
    C181   O352      0.68842      .   S
    C175   O353      0.54216      .   S
    C79    O353      0.54216      .   S
    C229   O354      1.00000      .   S
    C9     O354      1.00000      .   S
    C253   O355      0.99970      .   S
    C7     O355      0.99970      .   S
    C145   O356      0.54235      .   S
    C49    O356      0.54235      .   S
    C181   O357      0.54239      .   S
    C85    O357      0.54239      .   S
    C103   O358      0.54241      .   S
    C199   O358      0.54241      .   S
    C19    O359      0.54240      .   S
    C115   O359      0.54240      .   S
    C121   O360      0.68844      .   S
    C115   O360      0.68844  1_565   S
    C121   O361      0.69270      .   S
    C214   O361      0.69270      .   S
    C205   O362      0.68837      .   S
    C199   O362      0.68837      .   S
    C205   O363      0.69266      .   S
    C270   O363      0.69266      .   S
    C107   O364      0.54257      .   S
    C203   O364      0.54257      .   S
    C23    O365      0.54257      .   S
    C119   O365      0.54257      .   S
    C213   O366      0.67446      .   S
    C119   O366      0.67446      .   S
    C213   O367      0.69269      .   S
    C120   O367      0.69269      .   S
    C269   O368      0.67444      .   S
    C203   O368      0.67444      .   S
    C269   O369      0.69262      .   S
    C204   O369      0.69262      .   S
    C115   O370      0.69265      .   S
    C210   O370      0.69265      .   S
    C199   O371      0.69264      .   S
    C266   O371      0.69264      .   S
    C119   O372      0.67442      .   S
    C209   O372      0.67442      .   S
    C203   O373      0.67442      .   S
    C265   O373      0.67442      .   S
    C270   O374      1.00304      .   S
    C7     O374      1.00304  1_455   S
    C270   O375      0.67445      .   S
    C206   O375      0.67445      .   S
    C214   O376      1.00296      .   S
    C9     O376      1.00296      .   S
    C214   O377      0.67438      .   S
    C122   O377      0.67438      .   S
    C7     O378      1.00481  1_455   S
    C215   O378      1.00481      .   S
    C7     O379      1.00383      .   S
    C236   O379      1.00383      .   S
    C9     O380      1.00478      .   S
    C271   O380      1.00478      .   S
    C9     O381      1.00385      .   S
    C244   O381      1.00385      .   S
    C24    O382      0.54245      .   S
    C120   O382      0.54245      .   S
    C108   O383      0.54246      .   S
    C204   O383      0.54246      .   S
    C70    O384      0.54228      .   S
    C166   O384      0.54228      .   S
    C58    O385      0.54223      .   S
    C154   O385      0.54223      .   S
    C120   O386      0.68834      .   S
    C114   O386      0.68834      .   S
    C204   O387      0.68837      .   S
    C198   O387      0.68837      .   S
    C27    O388      0.54254      .   S
    C123   O388      0.54254      .   S
    C111   O389      0.54254      .   S
    C207   O389      0.54254      .   S
    C266   O390      0.67431      .   S
    C206   O390      0.67431      .   S
    C266   O391      1.00456      .   S
    C14    O391      1.00456      .   S
    C210   O392      0.67435      .   S
    C122   O392      0.67435  1_545   S
    C210   O393      1.00455      .   S
    C0     O393      1.00455      .   S
    C271   O394      0.67441      .   S
    C207   O394      0.67441      .   S
    C271   O395      0.69237      .   S
    C197   O395      0.69237      .   S
    C215   O396      0.67440      .   S
    C123   O396      0.67440      .   S
    C215   O397      0.69243      .   S
    C113   O397      0.69243      .   S
    C123   O398      0.67437      .   S
    C208   O398      0.67437      .   S
    C207   O399      0.67439      .   S
    C264   O399      0.67439      .   S
    C209   O400      0.69287      .   S
    C114   O400      0.69287      .   S
    C209   O401      1.00917      .   S
    C0     O401      1.00917      .   S
    C265   O402      0.69288      .   S
    C198   O402      0.69288      .   S
    C265   O403      1.00915      .   S
    C14    O403      1.00915      .   S
    C122   O404      0.54262      .   S
    C26    O404      0.54262      .   S
    C206   O405      0.54254      .   S
    C110   O405      0.54254      .   S
    C166   O406      0.69235      .   S
    C244   O406      0.69235      .   S
    C166   O407      0.68740      .   S
    C164   O407      0.68740      .   S
    C154   O408      0.69234      .   S
    C236   O408      0.69234      .   S
    C154   O409      0.68721      .   S
    C152   O409      0.68721      .   S
    C114   O410      0.54246      .   S
    C18    O410      0.54246      .   S
    C198   O411      0.54240      .   S
    C102   O411      0.54240      .   S
    C197   O412      0.54240      .   S
    C101   O412      0.54240      .   S
    C197   O413      0.68854      .   S
    C196   O413      0.68854      .   S
    C113   O414      0.54243      .   S
    C17    O414      0.54243  1_455   S
    C113   O415      0.68848      .   S
    C112   O415      0.68848      .   S
    C264   O416      0.69255      .   S
    C196   O416      0.69255      .   S
    C264   O417      1.00148      .   S
    C14    O417      1.00148      .   S
    C208   O418      0.69256      .   S
    C112   O418      0.69256      .   S
    C208   O419      1.00146      .   S
    C0     O419      1.00146      .   S
    C236   O420      0.67447      .   S
    C153   O420      0.67447      .   S
    C244   O421      0.67445      .   S
    C165   O421      0.67445      .   S
    C196   O422      0.54219      .   S
    C100   O422      0.54219      .   S
    C112   O423      0.54232      .   S
    C16    O423      0.54232      .   S
    C14    O424      0.99853      .   S
    C267   O424      0.99853      .   S
    C0     O425      0.99847      .   S
    C211   O425      0.99847      .   S
    C152   O426      0.54240      .   S
    C56    O426      0.54240      .   S
    C152   O427      0.67261      .   S
    C235   O427      0.67261      .   S
    C164   O428      0.54237      .   S
    C68    O428      0.54237      .   S
    C164   O429      0.69282      .   S
    C243   O429      0.69282      .   S
    C153   O430      0.66355      .   S
    C235   O430      0.66355      .   S
    C153   O431      0.54277      .   S
    C57    O431      0.54277      .   S
    C165   O432      0.54280      .   S
    C69    O432      0.54280      .   S
    C165   O433      0.67516      .   S
    C243   O433      0.67516      .   S
    C235   O434      1.02564      .   S
    C6     O434      1.02564      .   S
    C243   O435      0.99855      .   S
    C8     O435      0.99855      .   S
    C267   O436      0.67516      .   S
    C201   O436      0.67516      .   S
    C267   O437      0.69250      .   S
    C200   O437      0.69250      .   S
    C211   O438      0.67516      .   S
    C117   O438      0.67516      .   S
    C211   O439      0.69255      .   S
    C116   O439      0.69255      .   S
    C21    O440      0.54276      .   S
    C117   O440      0.54276      .   S
    C105   O441      0.54276      .   S
    C201   O441      0.54276      .   S
    C117   O442      0.67455      .   S
    C212   O442      0.67455      .   S
    C201   O443      0.67446      .   S
    C268   O443      0.67446      .   S
    C104   O444      0.54229      .   S
    C200   O444      0.54229      .   S
    C20    O445      0.54230      .   S
    C116   O445      0.54230      .   S
    C200   O446      0.68777      .   S
    C202   O446      0.68777      .   S
    C116   O447      0.68708      .   S
    C118   O447      0.68708      .   S
    C66    O448      0.54764      .   S
    C162   O448      0.54764      .   S
    C54    O449      0.54239      .   S
    C150   O449      0.54239      .   S
    C64    O450      0.54231      .   S
    C160   O450      0.54231      .   S
    C52    O451      0.54231      .   S
    C148   O451      0.54231      .   S
    C62    O452      0.54326      .   S
    C158   O452      0.54326      .   S
    C74    O453      0.54260      .   S
    C170   O453      0.54260      .   S
    C6     O454      1.00147      .   S
    C232   O454      1.00147      .   S
    C6     O455      1.00919      .   S
    C233   O455      1.00919      .   S
    C6     O456      1.00456      .   S
    C234   O456      1.00456      .   S
    C8     O457      1.00147      .   S
    C240   O457      1.00147      .   S
    C8     O458      1.00914      .   S
    C241   O458      1.00914      .   S
    C8     O459      1.00450      .   S
    C242   O459      1.00450      .   S
    C160   O460      0.69256      .   S
    C240   O460      0.69256      .   S
    C160   O461      0.68845      .   S
    C161   O461      0.68845      .   S
    C148   O462      0.69256      .   S
    C232   O462      0.69256      .   S
    C148   O463      0.68845      .   S
    C149   O463      0.68845      .   S
    C212   O464      0.69218      .   S
    C118   O464      0.69218      .   S
    C212   O465      1.00346      .   S
    C1     O465      1.00346      .   S
    C268   O466      0.69234      .   S
    C202   O466      0.69234      .   S
    C268   O467      1.00384      .   S
    C15    O467      1.00384      .   S
    C240   O468      0.67439      .   S
    C171   O468      0.67439      .   S
    C232   O469      0.67437      .   S
    C159   O469      0.67437      .   S
    C65    O470      0.54244  1_655   S
    C161   O470      0.54244      .   S
    C53    O471      0.54238      .   S
    C149   O471      0.54238      .   S
    C161   O472      0.69249      .   S
    C247   O472      0.69249      .   S
    C149   O473      0.69245      .   S
    C239   O473      0.69245      .   S
    C150   O474      0.69290      .   S
    C233   O474      0.69290      .   S
    C150   O475      0.68836      .   S
    C156   O475      0.68836      .   S
    C162   O476      0.69289      .   S
    C241   O476      0.69289      .   S
    C162   O477      0.68782      .   S
    C168   O477      0.68782      .   S
    C118   O478      0.54298      .   S
    C22    O478      0.54298      .   S
    C202   O479      0.54231      .   S
    C106   O479      0.54231      .   S
    C158   O480      0.67430      .   S
    C234   O480      0.67430      .   S
    C158   O481      0.67444      .   S
    C238   O481      0.67444      .   S
    C170   O482      0.67435  1_565   S
    C242   O482      0.67435      .   S
    C170   O483      0.67423      .   S
    C246   O483      0.67423      .   S
    C233   O484      0.67443      .   S
    C155   O484      0.67443      .   S
    C241   O485      0.67444      .   S
    C167   O485      0.67444      .   S
    C159   O486      0.67439      .   S
    C239   O486      0.67439      .   S
    C159   O487      0.54255      .   S
    C63    O487      0.54255      .   S
    C171   O488      0.67439      .   S
    C247   O488      0.67439      .   S
    C171   O489      0.54253      .   S
    C75    O489      0.54253      .   S
    C247   O490      1.00479      .   S
    C15    O490      1.00479  1_655   S
    C239   O491      1.00466      .   S
    C1     O491      1.00466      .   S
    C234   O492      0.69272      .   S
    C151   O492      0.69272      .   S
    C242   O493      0.69261      .   S
    C163   O493      0.69261      .   S
    C168   O494      0.54254      .   S
    C72    O494      0.54254      .   S
    C168   O495      0.69318      .   S
    C245   O495      0.69318      .   S
    C156   O496      0.54246      .   S
    C60    O496      0.54246      .   S
    C156   O497      0.69267      .   S
    C237   O497      0.69267      .   S
    C1     O498      1.00298      .   S
    C246   O498      1.00298      .   S
    C1     O499      1.00014      .   S
    C261   O499      1.00014      .   S
    C15    O500      1.00303  1_655   S
    C238   O500      1.00303      .   S
    C15    O501      0.99972      .   S
    C221   O501      0.99972      .   S
    C246   O502      0.69281      .   S
    C169   O502      0.69281      .   S
    C238   O503      0.69271      .   S
    C157   O503      0.69271      .   S
    C155   O504      0.67443      .   S
    C237   O504      0.67443      .   S
    C155   O505      0.54256      .   S
    C59    O505      0.54256      .   S
    C167   O506      0.67443      .   S
    C245   O506      0.67443      .   S
    C167   O507      0.54255      .   S
    C71    O507      0.54255      .   S
    C37    O508      0.54240      .   S
    C133   O508      0.54240      .   S
    C97    O509      0.54242      .   S
    C193   O509      0.54242      .   S
    C163   O510      0.68844  1_545   S
    C169   O510      0.68844      .   S
    C163   O511      0.54243      .   S
    C67    O511      0.54243      .   S
    C151   O512      0.68837      .   S
    C157   O512      0.68837      .   S
    C151   O513      0.54240      .   S
    C55    O513      0.54240      .   S
    C237   O514      0.99963      .   S
    C11    O514      0.99963      .   S
    C245   O515      0.99969      .   S
    C5     O515      0.99969      .   S
    C169   O516      0.54244      .   S
    C73    O516      0.54244      .   S
    C157   O517      0.54238      .   S
    C61    O517      0.54238      .   S
    C31    O518      0.54242      .   S
    C127   O518      0.54242      .   S
    C91    O519      0.54241      .   S
    C187   O519      0.54241      .   S
    C133   O520      0.68846      .   S
    C127   O520      0.68846  1_545   S
    C133   O521      0.69270      .   S
    C222   O521      0.69270      .   S
    C193   O522      0.68838      .   S
    C187   O522      0.68838      .   S
    C193   O523      0.69269      .   S
    C262   O523      0.69269      .   S
    C95    O524      0.54344      .   S
    C191   O524      0.54344      .   S
    C35    O525      0.54260      .   S
    C131   O525      0.54260      .   S
    C261   O526      0.67445      .   S
    C191   O526      0.67445      .   S
    C261   O527      0.69269      .   S
    C192   O527      0.69269      .   S
    C221   O528      0.67446      .   S
    C131   O528      0.67446      .   S
    C221   O529      0.69265      .   S
    C132   O529      0.69265      .   S
    C187   O530      0.69260      .   S
    C258   O530      0.69260      .   S
    C127   O531      0.69263      .   S
    C218   O531      0.69263      .   S
    C131   O532      0.67440      .   S
    C217   O532      0.67440      .   S
    C191   O533      0.67443      .   S
    C257   O533      0.67443      .   S
    C262   O534      1.00299      .   S
    C5     O534      1.00299      .   S
    C262   O535      0.67444      .   S
    C194   O535      0.67444      .   S
    C222   O536      1.00300      .   S
    C11    O536      1.00300  1_455   S
    C222   O537      0.67445      .   S
    C134   O537      0.67445      .   S
    C11    O538      1.00487  1_455   S
    C263   O538      1.00487      .   S
    C11    O539      1.00387      .   S
    C252   O539      1.00387      .   S
    C5     O540      1.00474      .   S
    C223   O540      1.00474      .   S
    C5     O541      1.00388      .   S
    C228   O541      1.00388      .   S
    C96    O542      0.54246      .   S
    C192   O542      0.54246      .   S
    C36    O543      0.54245      .   S
    C132   O543      0.54245      .   S
    C82    O544      0.54232      .   S
    C178   O544      0.54232      .   S
    C46    O545      0.54211      .   S
    C142   O545      0.54211      .   S
    C192   O546      0.68837      .   S
    C186   O546      0.68837      .   S
    C132   O547      0.68840      .   S
    C126   O547      0.68840      .   S
    C99    O548      0.54254      .   S
    C195   O548      0.54254      .   S
    C39    O549      0.54255      .   S
    C135   O549      0.54255      .   S
    C258   O550      0.67432      .   S
    C194   O550      0.67432      .   S
    C258   O551      1.00456      .   S
    C12    O551      1.00456      .   S
    C218   O552      0.67436      .   S
    C134   O552      0.67436  1_565   S
    C218   O553      1.00450      .   S
    C2     O553      1.00450      .   S
    C263   O554      0.67440      .   S
    C195   O554      0.67440      .   S
    C263   O555      0.69249      .   S
    C185   O555      0.69249      .   S
    C223   O556      0.67440      .   S
    C135   O556      0.67440      .   S
    C223   O557      0.69234      .   S
    C125   O557      0.69234      .   S
    C195   O558      0.67440      .   S
    C256   O558      0.67440      .   S
    C135   O559      0.67438      .   S
    C216   O559      0.67438      .   S
    C217   O560      0.69290      .   S
    C126   O560      0.69290      .   S
    C217   O561      1.00915      .   S
    C2     O561      1.00915      .   S
    C257   O562      0.69290      .   S
    C186   O562      0.69290      .   S
    C257   O563      1.00914      .   S
    C12    O563      1.00914      .   S
    C194   O564      0.54258      .   S
    C98    O564      0.54258      .   S
    C134   O565      0.54255      .   S
    C38    O565      0.54255      .   S
    C178   O566      0.69233      .   S
    C252   O566      0.69233      .   S
    C178   O567      0.68777      .   S
    C176   O567      0.68777      .   S
    C142   O568      0.69237      .   S
    C228   O568      0.69237      .   S
    C142   O569      0.68788      .   S
    C140   O569      0.68788      .   S
    C186   O570      0.54237      .   S
    C90    O570      0.54237      .   S
    C126   O571      0.54242      .   S
    C30    O571      0.54242      .   S
    C125   O572      0.54240      .   S
    C29    O572      0.54240      .   S
    C125   O573      0.68849      .   S
    C124   O573      0.68849      .   S
    C185   O574      0.54242      .   S
    C89    O574      0.54242  1_455   S
    C185   O575      0.68845      .   S
    C184   O575      0.68845      .   S
    C256   O576      0.69256      .   S
    C184   O576      0.69256      .   S
    C256   O577      1.00147      .   S
    C12    O577      1.00147      .   S
    C216   O578      0.69251      .   S
    C124   O578      0.69251      .   S
    C216   O579      1.00146      .   S
    C2     O579      1.00146      .   S
    C252   O580      0.67447      .   S
    C177   O580      0.67447      .   S
    C228   O581      0.67445      .   S
    C141   O581      0.67445      .   S
    C124   O582      0.54245      .   S
    C28    O582      0.54245      .   S
    C184   O583      0.54230      .   S
    C88    O583      0.54230      .   S
    C176   O584      0.54229      .   S
    C80    O584      0.54229      .   S
    C176   O585      0.69246      .   S
    C251   O585      0.69246      .   S
    C140   O586      0.54230      .   S
    C44    O586      0.54230      .   S
    C140   O587      0.69253      .   S
    C227   O587      0.69253      .   S
    C177   O588      0.54279      .   S
    C81    O588      0.54279      .   S
    C177   O589      0.67516      .   S
    C251   O589      0.67516      .   S
    C141   O590      0.54278      .   S
    C45    O590      0.54278      .   S
    C141   O591      0.67516      .   S
    C227   O591      0.67516      .   S
