# CIF file generated by openbabel 2.4.90, see http://openbabel.sf.net
data_I
_chemical_name_common ''
_cell_length_a 14.647
_cell_length_b 20.817
_cell_length_c 16.596
_cell_angle_alpha 89.997
_cell_angle_beta 90.006
_cell_angle_gamma 90.004
_space_group_name_H-M_alt 'P 1'
_space_group_name_Hall 'P 1'
loop_
    _symmetry_equiv_pos_as_xyz
    x,y,z
loop_
    _atom_site_label
    _atom_site_type_symbol
    _atom_site_fract_x
    _atom_site_fract_y
    _atom_site_fract_z
    _atom_site_occupancy
    Zr0     Zr   0.06522   0.46465   0.69870   1.000
    Zr1     Zr   0.06521   0.96464   0.69870   1.000
    Zr2     Zr   0.56521   0.46465   0.69872   1.000
    Zr3     Zr   0.56520   0.96464   0.69873   1.000
    Zr4     Zr   0.31523   0.21465   0.80131   1.000
    Zr5     Zr   0.31521   0.71464   0.80130   1.000
    Zr6     Zr   0.81521   0.21465   0.80131   1.000
    Zr7     Zr   0.81520   0.71464   0.80130   1.000
    N8      N    0.58821   0.16050   0.65441   1.000
    O9      O    0.47260   0.19231   0.69512   1.000
    O10     O    0.58104   0.09291   0.67030   1.000
    N11     N    0.33823   0.91047   0.84558   1.000
    O12     O    0.33105   0.84290   0.82971   1.000
    O13     O    0.22261   0.94230   0.80489   1.000
    N14     N    0.08822   0.16050   0.65441   1.000
    O15     O    0.08105   0.09291   0.67029   1.000
    O16     O    0.97260   0.19231   0.69512   1.000
    N17     N    0.83822   0.91048   0.84562   1.000
    O18     O    0.83104   0.84290   0.82973   1.000
    O19     O    0.72260   0.94230   0.80492   1.000
    N20     N    0.58822   0.66049   0.65441   1.000
    O21     O    0.58105   0.59291   0.67029   1.000
    O22     O    0.47260   0.69230   0.69510   1.000
    N23     N    0.83824   0.41049   0.84562   1.000
    O24     O    0.83106   0.34291   0.82974   1.000
    O25     O    0.72261   0.44231   0.80491   1.000
    N26     N    0.08822   0.66049   0.65441   1.000
    O27     O    0.97260   0.69230   0.69511   1.000
    O28     O    0.08105   0.59291   0.67029   1.000
    N29     N    0.33825   0.41049   0.84561   1.000
    O30     O    0.22262   0.44231   0.80491   1.000
    O31     O    0.33107   0.34291   0.82973   1.000
loop_
    _geom_bond_atom_site_label_1
    _geom_bond_atom_site_label_2
    _geom_bond_distance
    _geom_bond_site_symmetry_2
    _ccdc_geom_bond_type
    N8     O9        1.93984      .   S
    Zr4    O9        2.93882      .   S
    N8     O10       1.43520      .   S
    Zr3    O10       2.72160  1_565   S
    N11    O12       1.43505      .   S
    Zr5    O12       2.72122      .   S
    N11    O13       1.93977      .   S
    Zr1    O13       2.93870      .   S
    N14    O15       1.43522      .   S
    Zr1    O15       2.72148  1_565   S
    N14    O16       1.93996  1_455   S
    Zr6    O16       2.93892      .   S
    N17    O18       1.43512      .   S
    Zr7    O18       2.72123      .   S
    N17    O19       1.93986      .   S
    Zr3    O19       2.93870      .   S
    N20    O21       1.43510      .   S
    Zr2    O21       2.72120      .   S
    N20    O22       1.93986      .   S
    Zr5    O22       2.93899      .   S
    N23    O24       1.43508      .   S
    Zr6    O24       2.72125      .   S
    N23    O25       1.93985      .   S
    Zr2    O25       2.93881      .   S
    N26    O27       1.93995  1_455   S
    Zr7    O27       2.93905      .   S
    N26    O28       1.43508      .   S
    Zr0    O28       2.72117      .   S
    N29    O30       1.93987      .   S
    Zr0    O30       2.93894      .   S
    N29    O31       1.43509      .   S
    Zr4    O31       2.72121      .   S
