# CIF file generated by openbabel 2.4.90, see http://openbabel.sf.net
data_I
_chemical_name_common ''
_cell_length_a 22.218
_cell_length_b 14.321
_cell_length_c 18.373
_cell_angle_alpha 74.409
_cell_angle_beta 72.493
_cell_angle_gamma 67.103
_space_group_name_H-M_alt 'P 1'
_space_group_name_Hall 'P 1'
loop_
    _symmetry_equiv_pos_as_xyz
    x,y,z
loop_
    _atom_site_label
    _atom_site_type_symbol
    _atom_site_fract_x
    _atom_site_fract_y
    _atom_site_fract_z
    _atom_site_occupancy
    H0      H    0.48256   0.76125   0.98558   1.000
    H1      H    0.98258   0.76125   0.98558   1.000
    H2      H    0.37256   0.56001   0.03639   1.000
    H3      H    0.87258   0.55999   0.03640   1.000
    H4      H    0.44855   0.50284   0.14670   1.000
    H5      H    0.94857   0.50284   0.14671   1.000
    H6      H    0.05126   0.55422   0.14317   1.000
    H7      H    0.55126   0.55421   0.14317   1.000
    H8      H    0.05994   0.66797   0.07957   1.000
    H9      H    0.55995   0.66795   0.07957   1.000
    H10     H    0.00002   0.55880   0.27734   1.000
    H11     H    0.50003   0.55880   0.27734   1.000
    H12     H    0.47079   0.84449   0.11480   1.000
    H13     H    0.97081   0.84450   0.11480   1.000
    H14     H    0.23948   0.77810   0.03497   1.000
    H15     H    0.73949   0.77803   0.03497   1.000
    H16     H    0.28921   0.99783   0.84552   1.000
    H17     H    0.78921   0.99782   0.84555   1.000
    H18     H    0.15987   0.08763   0.92844   1.000
    H19     H    0.65987   0.08758   0.92840   1.000
    H20     H    0.12665   0.87585   0.09965   1.000
    H21     H    0.62666   0.87574   0.09965   1.000
    H22     H    0.11332   0.00000   0.09011   1.000
    H23     H    0.61333   0.00000   0.09016   1.000
    H24     H    0.10703   0.87635   0.94036   1.000
    H25     H    0.60702   0.87631   0.94037   1.000
    H26     H    0.49504   0.08231   0.10573   1.000
    H27     H    0.99503   0.08235   0.10572   1.000
    H28     H    0.35532   0.73920   0.51484   1.000
    H29     H    0.85533   0.73921   0.51484   1.000
    H30     H    0.17011   0.94037   0.46272   1.000
    H31     H    0.67012   0.94035   0.46272   1.000
    H32     H    0.27266   0.99752   0.35316   1.000
    H33     H    0.77266   0.99750   0.35310   1.000
    H34     H    0.39923   0.94606   0.35765   1.000
    H35     H    0.89923   0.94607   0.35765   1.000
    H36     H    0.43296   0.83228   0.42146   1.000
    H37     H    0.93296   0.83228   0.42146   1.000
    H38     H    0.41804   0.94147   0.22340   1.000
    H39     H    0.91806   0.94148   0.22340   1.000
    H40     H    0.44966   0.65578   0.38595   1.000
    H41     H    0.94966   0.65579   0.38594   1.000
    H42     H    0.14555   0.72216   0.46421   1.000
    H43     H    0.64556   0.72215   0.46420   1.000
    H44     H    0.21093   0.50303   0.65400   1.000
    H45     H    0.71093   0.50303   0.65409   1.000
    H46     H    0.16808   0.41282   0.57124   1.000
    H47     H    0.66809   0.41281   0.57125   1.000
    H48     H    0.11394   0.62404   0.39973   1.000
    H49     H    0.61396   0.62403   0.39973   1.000
    H50     H    0.16223   0.49167   0.40954   1.000
    H51     H    0.66224   0.49166   0.40954   1.000
    H52     H    0.01541   0.62414   0.55907   1.000
    H53     H    0.51542   0.62414   0.55907   1.000
    H54     H    0.08884   0.41724   0.39438   1.000
    H55     H    0.58885   0.41724   0.39438   1.000
    H56     H    0.01742   0.23878   0.01439   1.000
    H57     H    0.51744   0.23877   0.01439   1.000
    H58     H    0.12741   0.44004   0.96357   1.000
    H59     H    0.62744   0.44002   0.96357   1.000
    H60     H    0.05143   0.49720   0.85327   1.000
    H61     H    0.55145   0.49719   0.85327   1.000
    H62     H    0.44874   0.44582   0.85680   1.000
    H63     H    0.94873   0.44581   0.85681   1.000
    H64     H    0.44005   0.33207   0.92040   1.000
    H65     H    0.94005   0.33206   0.92041   1.000
    H66     H    0.49996   0.44123   0.72263   1.000
    H67     H    0.99997   0.44123   0.72260   1.000
    H68     H    0.02920   0.15553   0.88517   1.000
    H69     H    0.52921   0.15554   0.88517   1.000
    H70     H    0.26051   0.22200   0.96500   1.000
    H71     H    0.76052   0.22194   0.96500   1.000
    H72     H    0.21079   0.00000   0.15441   1.000
    H73     H    0.71079   0.00000   0.15445   1.000
    H74     H    0.34013   0.91245   0.07148   1.000
    H75     H    0.84013   0.91240   0.07150   1.000
    H76     H    0.37335   0.12429   0.90032   1.000
    H77     H    0.87335   0.12419   0.90030   1.000
    H78     H    0.38667   0.99194   0.90980   1.000
    H79     H    0.88668   0.99183   0.90985   1.000
    H80     H    0.39298   0.12372   0.05960   1.000
    H81     H    0.89297   0.12368   0.05961   1.000
    H82     H    0.00497   0.91769   0.89425   1.000
    H83     H    0.50497   0.91772   0.89424   1.000
    C84     C    0.97641   0.36539   0.87802   1.000
    C85     C    0.01089   0.30551   0.81166   1.000
    C86     C    0.51090   0.30551   0.81166   1.000
    C87     C    0.01788   0.35723   0.73470   1.000
    H88     H    0.14467   0.26082   0.48513   1.000
    H89     H    0.64468   0.26082   0.48513   1.000
    H90     H    0.32988   0.05967   0.53725   1.000
    H91     H    0.82989   0.05965   0.53725   1.000
    H92     H    0.22734   0.00252   0.64682   1.000
    H93     H    0.72734   0.00251   0.64681   1.000
    H94     H    0.10077   0.05396   0.64232   1.000
    H95     H    0.60077   0.05397   0.64232   1.000
    H96     H    0.06704   0.16775   0.57851   1.000
    H97     H    0.56705   0.16775   0.57851   1.000
    H98     H    0.08195   0.05855   0.77657   1.000
    H99     H    0.58196   0.05855   0.77657   1.000
    H100    H    0.05033   0.34425   0.61403   1.000
    H101    H    0.55034   0.34425   0.61403   1.000
    H102    H    0.35444   0.27787   0.53576   1.000
    H103    H    0.85445   0.27786   0.53576   1.000
    H104    H    0.28907   0.49699   0.34588   1.000
    H105    H    0.78907   0.49699   0.34588   1.000
    H106    H    0.33191   0.58721   0.42872   1.000
    H107    H    0.83192   0.58721   0.42872   1.000
    H108    H    0.38604   0.37600   0.60024   1.000
    H109    H    0.88605   0.37599   0.60024   1.000
    H110    H    0.33775   0.50838   0.59042   1.000
    H111    H    0.83776   0.50836   0.59043   1.000
    H112    H    0.48458   0.37590   0.44090   1.000
    H113    H    0.98459   0.37589   0.44090   1.000
    H114    H    0.41115   0.58279   0.60559   1.000
    H115    H    0.91116   0.58279   0.60559   1.000
    S116    S    0.02905   0.63425   0.70595   1.000
    S117    S    0.52906   0.63425   0.70595   1.000
    S118    S    0.10756   0.85051   0.66510   1.000
    S119    S    0.60757   0.85050   0.66510   1.000
    S120    S    0.43679   0.85341   0.80371   1.000
    C121    C    0.46095   0.70120   0.01431   1.000
    C122    C    0.96096   0.70120   0.01431   1.000
    C123    C    0.40560   0.59509   0.04270   1.000
    C124    C    0.90562   0.59508   0.04273   1.000
    C125    C    0.44287   0.56550   0.09772   1.000
    C126    C    0.94289   0.56549   0.09773   1.000
    C127    C    0.02359   0.63464   0.12196   1.000
    C128    C    0.52359   0.63463   0.12196   1.000
    C129    C    0.48909   0.69452   0.18832   1.000
    C130    C    0.98911   0.69452   0.18831   1.000
    C131    C    0.48211   0.64280   0.26526   1.000
    C132    C    0.98212   0.64280   0.26526   1.000
    C133    C    0.46541   0.80243   0.17400   1.000
    C134    C    0.96543   0.80243   0.17419   1.000
    C135    C    0.23666   0.84917   0.99393   1.000
    C136    C    0.73668   0.84912   0.99390   1.000
    C137    C    0.25988   0.96597   0.89783   1.000
    C138    C    0.75989   0.96594   0.89786   1.000
    C139    C    0.19596   0.01102   0.93753   1.000
    C140    C    0.69596   0.01097   0.93757   1.000
    C141    C    0.11967   0.94881   0.05820   1.000
    C142    C    0.61968   0.94872   0.05831   1.000
    C143    C    0.05828   0.97603   0.02675   1.000
    C144    C    0.55829   0.97598   0.02670   1.000
    C145    C    0.06022   0.93008   0.96733   1.000
    C146    C    0.56022   0.93005   0.96734   1.000
    C147    C    0.49759   0.04609   0.05909   1.000
    C148    C    0.99759   0.04611   0.05900   1.000
    C149    C    0.31807   0.79925   0.48585   1.000
    C150    C    0.81807   0.79925   0.48585   1.000
    C151    C    0.22387   0.90532   0.45677   1.000
    C152    C    0.72387   0.90530   0.45677   1.000
    C153    C    0.27384   0.93489   0.40214   1.000
    C154    C    0.77384   0.93488   0.40214   1.000
    C155    C    0.40125   0.86566   0.37878   1.000
    C156    C    0.90126   0.86566   0.37878   1.000
    C157    C    0.43006   0.80576   0.31242   1.000
    C158    C    0.93007   0.80576   0.31242   1.000
    C159    C    0.43603   0.85748   0.23547   1.000
    C160    C    0.93604   0.85748   0.23547   1.000
    C161    C    0.45321   0.69785   0.32654   1.000
    C162    C    0.95322   0.69785   0.32654   1.000
    C163    C    0.15792   0.65120   0.50537   1.000
    C164    C    0.65793   0.65119   0.50538   1.000
    C165    C    0.19174   0.53469   0.60170   1.000
    C166    C    0.69175   0.53469   0.60171   1.000
    C167    C    0.17028   0.48945   0.56204   1.000
    C168    C    0.67028   0.48944   0.56204   1.000
    C169    C    0.12297   0.55121   0.44124   1.000
    C170    C    0.62298   0.55120   0.44124   1.000
    C171    C    0.05955   0.52402   0.47290   1.000
    C172    C    0.55956   0.52401   0.47298   1.000
    C173    C    0.00892   0.57022   0.53233   1.000
    C174    C    0.50893   0.57022   0.53233   1.000
    C175    C    0.05005   0.45366   0.44095   1.000
    C176    C    0.55006   0.45366   0.44095   1.000
    C177    C    0.03903   0.29883   0.98566   1.000
    C178    C    0.53905   0.29882   0.98566   1.000
    C179    C    0.09438   0.40496   0.95724   1.000
    C180    C    0.59440   0.40494   0.95724   1.000
    C181    C    0.05710   0.43454   0.90225   1.000
    C182    C    0.55713   0.43453   0.90225   1.000
    C183    C    0.47641   0.36539   0.87801   1.000
    C184    C    0.51789   0.35723   0.73471   1.000
    C185    C    0.03457   0.19760   0.82578   1.000
    C186    C    0.53459   0.19760   0.82578   1.000
    C187    C    0.26333   0.15091   0.00602   1.000
    C188    C    0.76334   0.15086   0.00604   1.000
    C189    C    0.24012   0.03408   0.10210   1.000
    C190    C    0.74012   0.03406   0.10213   1.000
    C191    C    0.30404   0.98906   0.06240   1.000
    C192    C    0.80404   0.98901   0.06243   1.000
    C193    C    0.38032   0.05131   0.94166   1.000
    C194    C    0.88033   0.05123   0.94168   1.000
    C195    C    0.44171   0.02405   0.97320   1.000
    C196    C    0.94172   0.02401   0.97322   1.000
    C197    C    0.43978   0.06998   0.03263   1.000
    C198    C    0.93978   0.06996   0.03264   1.000
    C199    C    0.00242   0.95392   0.94088   1.000
    C200    C    0.50242   0.95394   0.94088   1.000
    C201    C    0.18193   0.20078   0.51412   1.000
    C202    C    0.68194   0.20078   0.51412   1.000
    C203    C    0.27613   0.09472   0.54320   1.000
    C204    C    0.77614   0.09471   0.54320   1.000
    C205    C    0.22616   0.06514   0.59783   1.000
    C206    C    0.72617   0.06513   0.59783   1.000
    C207    C    0.09875   0.13437   0.62119   1.000
    C208    C    0.59875   0.13437   0.62119   1.000
    C209    C    0.06993   0.19427   0.68756   1.000
    C210    C    0.56994   0.19427   0.68755   1.000
    C211    C    0.06396   0.14255   0.76450   1.000
    C212    C    0.56397   0.14255   0.76450   1.000
    C213    C    0.04678   0.30218   0.67343   1.000
    C214    C    0.54679   0.30218   0.67343   1.000
    C215    C    0.34207   0.34883   0.49459   1.000
    C216    C    0.84208   0.34883   0.49460   1.000
    C217    C    0.30825   0.46533   0.39826   1.000
    C218    C    0.80826   0.46533   0.39827   1.000
    C219    C    0.32972   0.51058   0.43793   1.000
    C220    C    0.82972   0.51058   0.43793   1.000
    C221    C    0.37701   0.44883   0.55873   1.000
    C222    C    0.87702   0.44882   0.55873   1.000
    C223    C    0.44044   0.47602   0.52699   1.000
    C224    C    0.94045   0.47601   0.52000   1.000
    C225    C    0.49107   0.42981   0.46764   1.000
    C226    C    0.99108   0.42981   0.46764   1.000
    C227    C    0.44994   0.54637   0.55902   1.000
    C228    C    0.94994   0.54637   0.55902   1.000
    S229    S    0.19909   0.86614   0.79359   1.000
    S230    S    0.69910   0.86613   0.79360   1.000
    S231    S    0.36573   0.65009   0.83441   1.000
    S232    S    0.86575   0.65007   0.83442   1.000
    S233    S    0.26536   0.64714   0.69572   1.000
    S234    S    0.76536   0.64713   0.69573   1.000
    S235    S    0.11180   0.67858   0.85011   1.000
    S236    S    0.61180   0.67858   0.85011   1.000
    S237    S    0.93680   0.85340   0.80371   1.000
    S238    S    0.37588   0.82181   0.64932   1.000
    S239    S    0.87588   0.82180   0.64932   1.000
    S240    S    0.30090   0.13390   0.20637   1.000
    S241    S    0.80091   0.13389   0.20637   1.000
    S242    S    0.13425   0.34997   0.16555   1.000
    S243    S    0.63427   0.34995   0.16555   1.000
    S244    S    0.23464   0.35290   0.30425   1.000
    S245    S    0.73464   0.35289   0.30425   1.000
    S246    S    0.38820   0.32145   0.14986   1.000
    S247    S    0.88820   0.32145   0.14986   1.000
    S248    S    0.47094   0.36577   0.29402   1.000
    S249    S    0.97094   0.36578   0.29402   1.000
    S250    S    0.39243   0.14952   0.33486   1.000
    S251    S    0.89244   0.14952   0.33487   1.000
    S252    S    0.06321   0.14663   0.19626   1.000
    S253    S    0.56321   0.14662   0.19626   1.000
    S254    S    0.12412   0.17824   0.35064   1.000
    S255    S    0.62413   0.17823   0.35064   1.000
    N256    N    0.41707   0.68005   0.99083   1.000
    N257    N    0.91709   0.68004   0.99083   1.000
    N258    N    0.47782   0.63350   0.07895   1.000
    N259    N    0.97784   0.63350   0.07890   1.000
    N260    N    0.28505   0.86506   0.93366   1.000
    N261    N    0.78506   0.86502   0.93368   1.000
    N262    N    0.18165   0.93592   0.99849   1.000
    N263    N    0.68166   0.93585   0.99851   1.000
    N264    N    0.25188   0.82037   0.50884   1.000
    N265    N    0.75189   0.82036   0.50884   1.000
    N266    N    0.33341   0.86686   0.42100   1.000
    N267    N    0.83341   0.86686   0.42129   1.000
    N268    N    0.18415   0.63554   0.56571   1.000
    N269    N    0.68416   0.63553   0.56572   1.000
    N270    N    0.14873   0.56435   0.50093   1.000
    N271    N    0.64874   0.56435   0.50094   1.000
    N272    N    0.08291   0.31999   0.00914   1.000
    N273    N    0.58292   0.31998   0.00914   1.000
    N274    N    0.02215   0.36653   0.92103   1.000
    N275    N    0.52217   0.36653   0.92103   1.000
    N276    N    0.21494   0.13500   0.06629   1.000
    N277    N    0.71495   0.13497   0.06630   1.000
    N278    N    0.31834   0.06418   0.00000   1.000
    N279    N    0.81835   0.06412   0.00000   1.000
    N280    N    0.24811   0.17967   0.49113   1.000
    N281    N    0.74812   0.17966   0.49113   1.000
    N282    N    0.16659   0.13317   0.57868   1.000
    N283    N    0.66660   0.13317   0.57868   1.000
    N284    N    0.31584   0.36449   0.43425   1.000
    N285    N    0.81585   0.36448   0.43420   1.000
    N286    N    0.35126   0.43568   0.49903   1.000
    N287    N    0.85127   0.43567   0.49904   1.000
loop_
    _geom_bond_atom_site_label_1
    _geom_bond_atom_site_label_2
    _geom_bond_distance
    _geom_bond_site_symmetry_2
    _ccdc_geom_bond_type
    N279   C188      1.36394      .   S
    N279   C192      1.39897  1_545   S
    N279   C194      1.44896  1_554   S
    N278   C187      1.36391      .   S
    N278   C191      1.39876  1_545   S
    N278   C193      1.44915  1_554   S
    C187   N276      1.33139      .   S
    C187   H70       1.08382  1_554   S
    C188   N277      1.33125      .   S
    C188   H71       1.08389  1_554   S
    N272   C179      1.38784  1_554   S
    N272   C177      1.33466  1_554   S
    N273   C180      1.38785  1_554   S
    N273   C178      1.33460  1_554   S
    C121   N258      1.36281      .   S
    C121   H0        1.08335  1_554   S
    C121   N256      1.33460  1_554   S
    C122   N259      1.36208      .   S
    C122   H1        1.08335  1_554   S
    C122   N257      1.33461  1_554   S
    H56    C177      1.08333  1_554   S
    H57    C178      1.08336  1_554   S
    C144   C142      1.51347      .   S
    C144   C147      1.40202  1_565   S
    C144   C146      1.39981  1_554   S
    C143   C141      1.51187      .   S
    C143   C148      1.40094  1_465   S
    C143   C145      1.40091  1_554   S
    C197   C147      1.39540      .   S
    C197   H80       1.09150      .   S
    C197   C195      1.40096  1_554   S
    C198   C148      1.39451      .   S
    C198   H81       1.09147      .   S
    C198   C196      1.40090  1_554   S
    H15    C136      1.08423  1_554   S
    H14    C135      1.08389  1_554   S
    H2     C123      1.08359      .   S
    H3     C124      1.08378      .   S
    C123   C125      1.37384      .   S
    C123   N256      1.38765  1_554   S
    C124   C126      1.37355      .   S
    C124   N257      1.38784  1_554   S
    C141   H22       1.00092  1_565   S
    C141   H20       1.10135      .   S
    C141   N262      1.46157  1_554   S
    C142   H23       1.00116  1_565   S
    C142   H21       1.10059      .   S
    C142   N263      1.46241  1_554   S
    C148   H27       1.09383      .   S
    C147   H26       1.09246      .   S
    C191   H74       1.08261      .   S
    C191   C189      1.37183  1_565   S
    C192   H75       1.08258      .   S
    C192   C190      1.37186  1_565   S
    N276   C189      1.38410      .   S
    N277   C190      1.38415      .   S
    N259   C126      1.38459      .   S
    N259   C127      1.47062  1_655   S
    N258   C125      1.38470      .   S
    N258   C128      1.47022      .   S
    H8     C127      1.09935      .   S
    H9     C128      1.09935      .   S
    C125   H4        1.08495      .   S
    C126   H5        1.08492      .   S
    C189   H72       1.09772      .   S
    C190   H73       1.09769      .   S
    H13    C134      1.09181      .   S
    H12    C133      1.08895      .   S
    C128   H7        1.09923      .   S
    C128   C129      1.51585      .   S
    C127   H6        1.09924      .   S
    C127   C130      1.51568  1_455   S
    C133   C129      1.40222      .   S
    C133   C159      1.39922      .   S
    C134   C130      1.40221      .   S
    C134   C160      1.39635      .   S
    C130   C132      1.40217      .   S
    C129   C131      1.40201      .   S
    H38    C159      1.09163      .   S
    H39    C160      1.09163      .   S
    C160   C158      1.40205      .   S
    C159   C157      1.40205      .   S
    C131   H11       1.09173      .   S
    C131   C161      1.39634      .   S
    C132   H10       1.09173  1_655   S
    C132   C162      1.39633      .   S
    C158   C162      1.40228      .   S
    C158   C156      1.51572      .   S
    C157   C161      1.40228      .   S
    C157   C155      1.51573      .   S
    C162   H41       1.09178      .   S
    C161   H40       1.09193      .   S
    H105   C218      1.08428      .   S
    H104   C217      1.08410      .   S
    H33    C154      1.08549      .   S
    H32    C153      1.08484      .   S
    H34    C155      1.09934      .   S
    H35    C156      1.09935      .   S
    C155   N266      1.46889      .   S
    C155   H36       1.09929      .   S
    C156   N267      1.47009      .   S
    C156   H37       1.09929      .   S
    H54    C175      1.09235      .   S
    H55    C176      1.09236      .   S
    C217   N284      1.38407      .   S
    C217   C219      1.37187      .   S
    C218   N285      1.38382      .   S
    C218   C220      1.37174      .   S
    H49    C170      1.10063      .   S
    H48    C169      1.10064      .   S
    C153   N266      1.38279      .   S
    C153   C151      1.37350      .   S
    C154   N267      1.38465      .   S
    C154   C152      1.37348      .   S
    H51    C170      1.09987      .   S
    H50    C169      1.09985      .   S
    N266   C149      1.36591      .   S
    N267   C150      1.36265      .   S
    H106   C219      1.08265      .   S
    H107   C220      1.08264      .   S
    N285   C216      1.33238      .   S
    N284   C215      1.33133      .   S
    C219   N286      1.38433      .   S
    C220   N287      1.38448      .   S
    H113   C226      1.09152      .   S
    H112   C225      1.09150      .   S
    C175   C226      1.39499  1_455   S
    C175   C171      1.40071      .   S
    C176   C225      1.39534      .   S
    C176   C172      1.40165      .   S
    C169   C171      1.51256      .   S
    C169   N270      1.46226      .   S
    C170   C172      1.51262      .   S
    C170   N271      1.46241      .   S
    C151   H30       1.08380      .   S
    C151   N264      1.38786      .   S
    C152   H31       1.08379      .   S
    C152   N265      1.38781      .   S
    H43    C164      1.08406      .   S
    H42    C163      1.08389      .   S
    C225   C223      1.40099      .   S
    C226   C224      1.31923      .   S
    C171   C173      1.40196      .   S
    C172   C174      1.40099      .   S
    H89    C202      1.08328      .   S
    H88    C201      1.08326      .   S
    C149   N264      1.33460      .   S
    C149   H28       1.08329      .   S
    C150   N265      1.33459      .   S
    C150   H29       1.08326      .   S
    N280   C201      1.33460      .   S
    N280   C203      1.38781      .   S
    N281   C202      1.33460      .   S
    N281   C204      1.38784      .   S
    C215   N286      1.36279      .   S
    C215   H102      1.08396      .   S
    C216   N287      1.36277      .   S
    C216   H103      1.08388      .   S
    N286   C221      1.46238      .   S
    N287   C222      1.46224      .   S
    N270   C163      1.36276      .   S
    N270   C167      1.38450      .   S
    N271   C164      1.36278      .   S
    N271   C168      1.38435      .   S
    C163   N268      1.33137      .   S
    C164   N269      1.33134      .   S
    C202   N283      1.36267      .   S
    C201   N282      1.36264      .   S
    C224   C222      1.52270      .   S
    C224   C228      1.48934      .   S
    C223   C221      1.51264      .   S
    C223   C227      1.40164      .   S
    C173   C228      1.39500  1_455   S
    C173   H52       1.09151      .   S
    C174   C227      1.39534      .   S
    C174   H53       1.09151      .   S
    H90    C203      1.08377      .   S
    H91    C204      1.08380      .   S
    C203   C205      1.37349      .   S
    C204   C206      1.37350      .   S
    C221   H110      1.09981      .   S
    C221   H108      1.10060      .   S
    C222   H111      1.09987      .   S
    C222   H109      1.10062      .   S
    C227   H114      1.09236      .   S
    C228   H115      1.09235      .   S
    C168   H47       1.08263      .   S
    C168   C166      1.37188      .   S
    C167   H46       1.08265      .   S
    C167   C165      1.37175      .   S
    N268   C165      1.38408      .   S
    N269   C166      1.38407      .   S
    H97    C208      1.09927      .   S
    H96    C207      1.09927      .   S
    N283   C206      1.38467      .   S
    N283   C208      1.47010      .   S
    N282   C205      1.38466      .   S
    N282   C207      1.47010      .   S
    C206   H93       1.08483      .   S
    C205   H92       1.08492      .   S
    C165   H44       1.08280      .   S
    C166   H45       1.08409      .   S
    H101   C214      1.09178      .   S
    H100   C213      1.09178      .   S
    C207   H94       1.09934      .   S
    C207   C209      1.51587      .   S
    C208   H95       1.09934      .   S
    C208   C210      1.51573      .   S
    C214   C210      1.40228      .   S
    C214   C184      1.39634      .   S
    C213   C209      1.40228      .   S
    C213   C87       1.39617      .   S
    C210   C212      1.40205      .   S
    C209   C211      1.40190      .   S
    H67    C87       1.09174  1_655   S
    H66    C184      1.09173      .   S
    C87    C85       1.40232      .   S
    C184   C86       1.40216      .   S
    C211   H98       1.09163      .   S
    C211   C185      1.39635      .   S
    C212   H99       1.09163      .   S
    C212   C186      1.39636      .   S
    C85    C185      1.40221      .   S
    C85    C84       1.51582  1_455   S
    C86    C186      1.40221      .   S
    C86    C183      1.51569      .   S
    C186   H69       1.09181      .   S
    C185   H68       1.09181      .   S
    H16    C137      1.08413      .   S
    H17    C138      1.08417      .   S
    H60    C181      1.08494      .   S
    H61    C182      1.08494      .   S
    H62    C183      1.09924      .   S
    H63    C84       1.09924      .   S
    C183   H64       1.09935      .   S
    C183   N275      1.47035      .   S
    C84    H65       1.09935      .   S
    C84    N274      1.46993  1_655   S
    H83    C200      1.09246      .   S
    H82    C199      1.09237      .   S
    C137   N260      1.38414      .   S
    C137   C139      1.37186  1_565   S
    C138   N261      1.38416      .   S
    C138   C140      1.37190  1_565   S
    H77    C194      1.10074      .   S
    H76    C193      1.10060      .   S
    C181   N274      1.38469      .   S
    C181   C179      1.37343      .   S
    C182   N275      1.38469      .   S
    C182   C180      1.37341      .   S
    H78    C193      1.09995  1_565   S
    H79    C194      1.09991  1_565   S
    N275   C178      1.36269      .   S
    N274   C177      1.36268      .   S
    H19    C140      1.08280      .   S
    H18    C139      1.08262      .   S
    N260   C135      1.33136      .   S
    N261   C136      1.33087      .   S
    C139   N262      1.38443  1_545   S
    C140   N263      1.38434  1_545   S
    H24    C145      1.09147      .   S
    H25    C146      1.09149      .   S
    C199   C145      1.39543      .   S
    C199   C196      1.40148  1_465   S
    C200   C146      1.39542      .   S
    C200   C195      1.40160  1_565   S
    C193   C195      1.51269      .   S
    C194   C196      1.51281      .   S
    C179   H58       1.08379      .   S
    C180   H59       1.08378      .   S
    C136   N263      1.36271      .   S
    C135   N262      1.36267      .   S
