# CIF file generated by openbabel 2.4.90, see http://openbabel.sf.net
data_I
_chemical_name_common ''
_cell_length_a 22.218
_cell_length_b 14.321
_cell_length_c 18.373
_cell_angle_alpha 74.409
_cell_angle_beta 72.493
_cell_angle_gamma 67.103
_space_group_name_H-M_alt 'P 1'
_space_group_name_Hall 'P 1'
loop_
    _symmetry_equiv_pos_as_xyz
    x,y,z
loop_
    _atom_site_label
    _atom_site_type_symbol
    _atom_site_fract_x
    _atom_site_fract_y
    _atom_site_fract_z
    _atom_site_occupancy
    Zr0     Zr   0.20463   0.74093   0.60225   1.000
    Zr1     Zr   0.70464   0.74092   0.60225   1.000
    Zr2     Zr   0.30123   0.74904   0.74098   1.000
    Zr3     Zr   0.80124   0.74903   0.74099   1.000
    Zr4     Zr   0.37664   0.75968   0.89725   1.000
    Zr5     Zr   0.87665   0.75966   0.89726   1.000
    Zr6     Zr   0.04626   0.75148   0.75846   1.000
    Zr7     Zr   0.54626   0.75148   0.75847   1.000
    Zr8     Zr   0.29536   0.25910   0.39772   1.000
    Zr9     Zr   0.79537   0.25909   0.39772   1.000
    Zr10    Zr   0.19875   0.25101   0.25897   1.000
    Zr11    Zr   0.69877   0.25100   0.25898   1.000
    Zr12    Zr   0.12335   0.24036   0.10271   1.000
    Zr13    Zr   0.62336   0.24035   0.10271   1.000
    Zr14    Zr   0.45374   0.24854   0.24150   1.000
    Zr15    Zr   0.95374   0.24854   0.24150   1.000
    Zr16    Zr   0.42742   0.73994   0.74610   1.000
    Zr17    Zr   0.92743   0.73992   0.74613   1.000
    Zr18    Zr   0.17042   0.76055   0.75336   1.000
    Zr19    Zr   0.67043   0.76054   0.75337   1.000
    Zr20    Zr   0.07257   0.26011   0.25384   1.000
    Zr21    Zr   0.57258   0.26010   0.25384   1.000
    Zr22    Zr   0.32957   0.23948   0.24660   1.000
    Zr23    Zr   0.82958   0.23948   0.24661   1.000
    O24     O    0.59797   0.25022   0.17828   1.000
    O25     O    0.09796   0.25024   0.17828   1.000
    O26     O    0.89166   0.24401   0.24405   1.000
    O27     O    0.39165   0.24401   0.24405   1.000
    O28     O    0.31247   0.24929   0.32216   1.000
    O29     O    0.81248   0.24929   0.32217   1.000
    O30     O    0.63567   0.25555   0.25641   1.000
    O31     O    0.13566   0.25556   0.25640   1.000
    O32     O    0.18752   0.75074   0.67781   1.000
    O33     O    0.68753   0.75073   0.67781   1.000
    O34     O    0.36432   0.74449   0.74354   1.000
    O35     O    0.86433   0.74447   0.74356   1.000
    O36     O    0.40203   0.74981   0.82168   1.000
    O37     O    0.90204   0.74979   0.82169   1.000
    O38     O    0.10834   0.75602   0.75591   1.000
    O39     O    0.60835   0.75601   0.75592   1.000
    N40     N    0.50000   0.99969   0.99993   1.000
    O41     O    0.33457   0.09369   0.04222   1.000
    O42     O    0.66543   0.90602   0.95770   1.000
    N43     N    0.00000   0.99969   0.99993   1.000
    O44     O    0.83458   0.09367   0.04222   1.000
    O45     O    0.16542   0.90603   0.95769   1.000
    N46     N    0.06321   0.14663   0.19626   1.000
    O47     O    0.03584   0.17211   0.20757   1.000
    O48     O    0.06555   0.17500   0.21066   1.000
    O49     O    0.07824   0.17006   0.17287   1.000
    N50     N    0.41156   0.75017   0.25014   1.000
    O51     O    0.40421   0.73502   0.09709   1.000
    O52     O    0.31991   0.76541   0.40284   1.000
    N53     N    0.58844   0.24986   0.74981   1.000
    O54     O    0.68010   0.23462   0.59712   1.000
    O55     O    0.59579   0.26501   0.90287   1.000
    N56     N    0.08843   0.24986   0.74981   1.000
    O57     O    0.09578   0.26502   0.90287   1.000
    O58     O    0.18009   0.23462   0.59712   1.000
    N59     N    0.50000   0.50001   0.49998   1.000
    O60     O    0.40280   0.40590   0.45798   1.000
    O61     O    0.59720   0.59412   0.54198   1.000
    N62     N    0.00000   0.50001   0.49976   1.000
    O63     O    0.09720   0.59412   0.54187   1.000
    O64     O    0.90281   0.40590   0.45786   1.000
    N65     N    0.91157   0.75017   0.25016   1.000
    O66     O    0.90422   0.73501   0.09710   1.000
    O67     O    0.81992   0.76540   0.40285   1.000
    N68     N    0.43679   0.85341   0.80371   1.000
    O69     O    0.43445   0.82504   0.78931   1.000
    O70     O    0.46416   0.82793   0.79240   1.000
    O71     O    0.42175   0.82998   0.82710   1.000
    N72     N    0.30090   0.13390   0.20637   1.000
    O73     O    0.27536   0.16318   0.21952   1.000
    O74     O    0.30806   0.16030   0.21643   1.000
    N75     N    0.23464   0.35290   0.30425   1.000
    O76     O    0.22567   0.32743   0.29293   1.000
    O77     O    0.25837   0.32454   0.28984   1.000
    O78     O    0.24982   0.32945   0.32762   1.000
    N79     N    0.80091   0.13389   0.20637   1.000
    O80     O    0.80808   0.16029   0.21643   1.000
    O81     O    0.77537   0.16317   0.21952   1.000
    N82     N    0.11180   0.67858   0.85011   1.000
    O83     O    0.12645   0.69907   0.82592   1.000
    O84     O    0.09541   0.69681   0.82720   1.000
    N85     N    0.47094   0.36577   0.29402   1.000
    O86     O    0.49635   0.33935   0.28398   1.000
    O87     O    0.46664   0.33646   0.28089   1.000
    N88     N    0.12412   0.17824   0.35064   1.000
    O89     O    0.14278   0.19643   0.32772   1.000
    O90     O    0.11123   0.19871   0.32644   1.000
    N91     N    0.69910   0.86613   0.79360   1.000
    O92     O    0.69193   0.83973   0.78354   1.000
    O93     O    0.72464   0.83685   0.78045   1.000
    N94     N    0.39243   0.14952   0.33486   1.000
    O95     O    0.40775   0.17427   0.31152   1.000
    O96     O    0.37671   0.17201   0.31279   1.000
    O97     O    0.36816   0.17691   0.35058   1.000
    N98     N    0.97094   0.36578   0.29402   1.000
    O99     O    0.96664   0.33647   0.28089   1.000
    O100    O    0.99635   0.33936   0.28398   1.000
    N101    N    0.13425   0.34997   0.16555   1.000
    O102    O    0.15038   0.32523   0.18891   1.000
    O103    O    0.11883   0.32750   0.18762   1.000
    O104    O    0.13153   0.32256   0.14984   1.000
    N105    N    0.87588   0.82180   0.64932   1.000
    O106    O    0.88877   0.80133   0.67352   1.000
    O107    O    0.85722   0.80360   0.67224   1.000
    N108    N    0.38820   0.32145   0.14986   1.000
    O109    O    0.40458   0.30322   0.17277   1.000
    O110    O    0.37354   0.30096   0.17405   1.000
    N111    N    0.56321   0.14662   0.19626   1.000
    O112    O    0.56556   0.17499   0.21066   1.000
    O113    O    0.53584   0.17210   0.20757   1.000
    O114    O    0.57825   0.17005   0.17287   1.000
    N115    N    0.36573   0.65009   0.83441   1.000
    O116    O    0.34961   0.67482   0.81105   1.000
    O117    O    0.38115   0.67255   0.81233   1.000
    O118    O    0.36846   0.67748   0.85012   1.000
    N119    N    0.61180   0.67858   0.85011   1.000
    O120    O    0.62646   0.69907   0.82593   1.000
    O121    O    0.59542   0.69680   0.82720   1.000
    N122    N    0.88820   0.32145   0.14986   1.000
    O123    O    0.87355   0.30096   0.17405   1.000
    O124    O    0.90459   0.30322   0.17277   1.000
    N125    N    0.86575   0.65007   0.83442   1.000
    O126    O    0.86847   0.67747   0.85013   1.000
    O127    O    0.84962   0.67481   0.81106   1.000
    O128    O    0.88117   0.67253   0.81235   1.000
    N129    N    0.52906   0.63425   0.70595   1.000
    O130    O    0.50365   0.66067   0.71599   1.000
    O131    O    0.53336   0.66356   0.71908   1.000
    N132    N    0.93680   0.85340   0.80371   1.000
    O133    O    0.92176   0.82997   0.82710   1.000
    O134    O    0.96416   0.82792   0.79240   1.000
    O135    O    0.93445   0.82503   0.78932   1.000
    N136    N    0.73464   0.35289   0.30425   1.000
    O137    O    0.75838   0.32454   0.28984   1.000
    O138    O    0.72567   0.32741   0.29293   1.000
    O139    O    0.74983   0.32944   0.32762   1.000
    N140    N    0.37588   0.82181   0.64932   1.000
    O141    O    0.35722   0.80362   0.67224   1.000
    O142    O    0.38876   0.80134   0.67352   1.000
    N143    N    0.62413   0.17823   0.35064   1.000
    O144    O    0.61124   0.19869   0.32644   1.000
    O145    O    0.64279   0.19642   0.32773   1.000
    N146    N    0.89244   0.14952   0.33487   1.000
    O147    O    0.86817   0.17691   0.35058   1.000
    O148    O    0.90776   0.17427   0.31153   1.000
    O149    O    0.87672   0.17201   0.31280   1.000
    N150    N    0.19909   0.86614   0.79359   1.000
    O151    O    0.22463   0.83687   0.78044   1.000
    O152    O    0.19192   0.83974   0.78353   1.000
    N153    N    0.10756   0.85051   0.66510   1.000
    O154    O    0.13183   0.82311   0.64939   1.000
    O155    O    0.12328   0.82802   0.68717   1.000
    O156    O    0.09224   0.82575   0.68844   1.000
    N157    N    0.60757   0.85050   0.66510   1.000
    O158    O    0.62329   0.82801   0.68717   1.000
    O159    O    0.59225   0.82575   0.68844   1.000
    O160    O    0.63184   0.82311   0.64939   1.000
    N161    N    0.26536   0.64714   0.69572   1.000
    O162    O    0.24162   0.67549   0.71013   1.000
    O163    O    0.25018   0.67059   0.67235   1.000
    O164    O    0.27433   0.67262   0.70703   1.000
    N165    N    0.02905   0.63425   0.70595   1.000
    O166    O    0.00365   0.66067   0.71600   1.000
    O167    O    0.03335   0.66356   0.71908   1.000
    N168    N    0.76536   0.64713   0.69573   1.000
    O169    O    0.77433   0.67260   0.70705   1.000
    O170    O    0.74163   0.67548   0.71014   1.000
    O171    O    0.75018   0.67058   0.67236   1.000
    N172    N    0.63427   0.34995   0.16555   1.000
    O173    O    0.65039   0.32521   0.18891   1.000
    O174    O    0.61885   0.32749   0.18762   1.000
    O175    O    0.63154   0.32255   0.14984   1.000
loop_
    _geom_bond_atom_site_label_1
    _geom_bond_atom_site_label_2
    _geom_bond_distance
    _geom_bond_site_symmetry_2
    _ccdc_geom_bond_type
    Zr13   O24       1.35573      .   S
    Zr21   O24       1.35573      .   S
    Zr12   O25       1.35573      .   S
    Zr20   O25       1.35573      .   S
    Zr15   O26       1.39212      .   S
    Zr23   O26       1.39212      .   S
    Zr14   O27       1.39214      .   S
    Zr22   O27       1.39214      .   S
    Zr22   O28       1.35547      .   S
    Zr8    O28       1.35547      .   S
    Zr23   O29       1.35538      .   S
    Zr9    O29       1.35538      .   S
    Zr21   O30       1.39230      .   S
    Zr11   O30       1.39230      .   S
    Zr20   O31       1.39228      .   S
    Zr10   O31       1.39228      .   S
    Zr0    O32       1.35539      .   S
    Zr18   O32       1.35539      .   S
    Zr1    O33       1.35548      .   S
    Zr19   O33       1.35548      .   S
    Zr2    O34       1.39223      .   S
    Zr16   O34       1.39223      .   S
    Zr3    O35       1.39231      .   S
    Zr17   O35       1.39231      .   S
    Zr16   O36       1.35589      .   S
    Zr4    O36       1.35589      .   S
    Zr17   O37       1.35572      .   S
    Zr5    O37       1.35572      .   S
    Zr18   O38       1.39214      .   S
    Zr6    O38       1.39214      .   S
    Zr19   O39       1.39214      .   S
    Zr7    O39       1.39214      .   S
    N40    O41       3.30438  1_566   S
    Zr12   O41       4.25646      .   S
    N40    O42       3.30420      .   S
    Zr5    O42       4.25580      .   S
    N43    O44       3.30427  1_466   S
    Zr13   O44       4.25632      .   S
    N43    O45       3.30409      .   S
    Zr4    O45       4.25566      .   S
    N46    O47       0.58146      .   S
    Zr15   O47       1.74439  1_655   S
    N46    O48       0.56588      .   S
    Zr20   O48       1.69764      .   S
    N46    O49       0.57639      .   S
    Zr12   O49       1.72918      .   S
    N50    O51       2.93479      .   S
    Zr4    O51       3.80377  1_556   S
    N50    O52       2.93453      .   S
    Zr0    O52       3.80368      .   S
    N53    O54       2.93444      .   S
    Zr9    O54       3.80360      .   S
    N53    O55       2.93489      .   S
    Zr13   O55       3.80380  1_554   S
    N56    O57       2.93490      .   S
    Zr12   O57       3.80382  1_554   S
    N56    O58       2.93445      .   S
    Zr8    O58       3.80360      .   S
    N59    O60       3.30182      .   S
    Zr8    O60       4.25330      .   S
    N59    O61       3.30184      .   S
    Zr1    O61       4.25333      .   S
    N62    O63       3.30288      .   S
    Zr0    O63       4.25445      .   S
    N62    O64       3.30077  1_455   S
    Zr9    O64       4.25195      .   S
    N65    O66       2.93487      .   S
    Zr5    O66       3.80378  1_556   S
    N65    O67       2.93444      .   S
    Zr1    O67       3.80359      .   S
    N68    O69       0.56597      .   S
    Zr16   O69       1.69791      .   S
    N68    O70       0.58153      .   S
    Zr7    O70       1.74458      .   S
    N68    O71       0.57637      .   S
    Zr4    O71       1.72912      .   S
    N72    O73       0.58560      .   S
    Zr10   O73       1.75681      .   S
    N72    O74       0.55184      .   S
    Zr22   O74       1.65553      .   S
    N75    O76       0.58166      .   S
    Zr10   O76       1.74498      .   S
    N75    O77       0.56589      .   S
    Zr22   O77       1.69767      .   S
    N75    O78       0.57651      .   S
    Zr8    O78       1.72953      .   S
    N79    O80       0.55188      .   S
    Zr23   O80       1.65563      .   S
    N79    O81       0.58561      .   S
    Zr11   O81       1.75683      .   S
    N82    O83       0.55392      .   S
    Zr18   O83       1.66176      .   S
    N82    O84       0.58058      .   S
    Zr6    O84       1.74174      .   S
    N85    O86       0.55189      .   S
    Zr21   O86       1.65568      .   S
    N85    O87       0.58566      .   S
    Zr14   O87       1.75698      .   S
    N88    O89       0.58062      .   S
    Zr10   O89       1.74185      .   S
    N88    O90       0.55390      .   S
    Zr20   O90       1.66170      .   S
    N91    O92       0.55185      .   S
    Zr19   O92       1.65555      .   S
    N91    O93       0.58560      .   S
    Zr3    O93       1.75681      .   S
    N94    O95       0.59153      .   S
    Zr14   O95       1.77460      .   S
    N94    O96       0.56342      .   S
    Zr22   O96       1.69026      .   S
    N94    O97       0.57497      .   S
    Zr8    O97       1.72491      .   S
    N98    O99       0.58566      .   S
    Zr15   O99       1.75697      .   S
    N98    O100      0.55183      .   S
    Zr20   O100      1.65549  1_455   S
    N101   O102      0.59162      .   S
    Zr10   O102      1.77486      .   S
    N101   O103      0.56336      .   S
    Zr20   O103      1.69008      .   S
    N101   O104      0.57520      .   S
    Zr12   O104      1.72559      .   S
    N105   O106      0.55394      .   S
    Zr17   O106      1.66181      .   S
    N105   O107      0.58062      .   S
    Zr3    O107      1.74185      .   S
    N108   O109      0.58055      .   S
    Zr14   O109      1.74164      .   S
    N108   O110      0.55390      .   S
    Zr22   O110      1.66171      .   S
    N111   O112      0.56588      .   S
    Zr21   O112      1.69765      .   S
    N111   O113      0.58152      .   S
    Zr14   O113      1.74457      .   S
    N111   O114      0.57640      .   S
    Zr13   O114      1.72919      .   S
    N115   O116      0.59164      .   S
    Zr2    O116      1.77493      .   S
    N115   O117      0.56340      .   S
    Zr16   O117      1.69019      .   S
    N115   O118      0.57519      .   S
    Zr4    O118      1.72558      .   S
    N119   O120      0.55390      .   S
    Zr19   O120      1.66171      .   S
    N119   O121      0.58054      .   S
    Zr7    O121      1.74161      .   S
    N122   O123      0.55392      .   S
    Zr23   O123      1.66177      .   S
    N122   O124      0.58055      .   S
    Zr15   O124      1.74166      .   S
    N125   O126      0.57519      .   S
    Zr5    O126      1.72558      .   S
    N125   O127      0.59166      .   S
    Zr3    O127      1.77497      .   S
    N125   O128      0.56336      .   S
    Zr17   O128      1.69009      .   S
    N129   O130      0.55187      .   S
    Zr16   O130      1.65560      .   S
    N129   O131      0.58566      .   S
    Zr7    O131      1.75697      .   S
    N132   O133      0.57639      .   S
    Zr5    O133      1.72918      .   S
    N132   O134      0.58147      .   S
    Zr6    O134      1.74441  1_455   S
    N132   O135      0.56588      .   S
    Zr17   O135      1.69763      .   S
    N136   O137      0.56587      .   S
    Zr23   O137      1.69761      .   S
    N136   O138      0.58164      .   S
    Zr11   O138      1.74491      .   S
    N136   O139      0.57651      .   S
    Zr9    O139      1.72954      .   S
    N140   O141      0.58060      .   S
    Zr2    O141      1.74181      .   S
    N140   O142      0.55381      .   S
    Zr16   O142      1.66144      .   S
    N143   O144      0.55389      .   S
    Zr21   O144      1.66168      .   S
    N143   O145      0.58060      .   S
    Zr11   O145      1.74181      .   S
    N146   O147      0.57495      .   S
    Zr9    O147      1.72486      .   S
    N146   O148      0.59155      .   S
    Zr15   O148      1.77465      .   S
    N146   O149      0.56342      .   S
    Zr23   O149      1.69027      .   S
    N150   O151      0.58560      .   S
    Zr2    O151      1.75680      .   S
    N150   O152      0.55186      .   S
    Zr18   O152      1.65558      .   S
    N153   O154      0.57496      .   S
    Zr0    O154      1.72489      .   S
    N153   O155      0.56341      .   S
    Zr18   O155      1.69024      .   S
    N153   O156      0.59153      .   S
    Zr6    O156      1.77459      .   S
    N157   O158      0.56344      .   S
    Zr19   O158      1.69033      .   S
    N157   O159      0.59155      .   S
    Zr7    O159      1.77465      .   S
    N157   O160      0.57497      .   S
    Zr1    O160      1.72490      .   S
    N161   O162      0.56588      .   S
    Zr18   O162      1.69763      .   S
    N161   O163      0.57650      .   S
    Zr0    O163      1.72949      .   S
    N161   O164      0.58164      .   S
    Zr2    O164      1.74492      .   S
    N165   O166      0.55183      .   S
    Zr17   O166      1.65548  1_655   S
    N165   O167      0.58563      .   S
    Zr6    O167      1.75688      .   S
    N168   O169      0.58163      .   S
    Zr3    O169      1.74489      .   S
    N168   O170      0.56588      .   S
    Zr19   O170      1.69763      .   S
    N168   O171      0.57653      .   S
    Zr1    O171      1.72958      .   S
    N172   O173      0.59164      .   S
    Zr11   O173      1.77493      .   S
    N172   O174      0.56336      .   S
    Zr21   O174      1.69008      .   S
    N172   O175      0.57520      .   S
    Zr13   O175      1.72560      .   S
