# CIF file generated by openbabel 2.4.90, see http://openbabel.sf.net
data_I
_chemical_name_common ''
_cell_length_a 14.019
_cell_length_b 14.615
_cell_length_c 16.671
_cell_angle_alpha 116.044
_cell_angle_beta 88.38
_cell_angle_gamma 90.024
_space_group_name_H-M_alt 'P 1'
_space_group_name_Hall 'P 1'
loop_
    _symmetry_equiv_pos_as_xyz
    x,y,z
loop_
    _atom_site_label
    _atom_site_type_symbol
    _atom_site_fract_x
    _atom_site_fract_y
    _atom_site_fract_z
    _atom_site_occupancy
    H0      H    0.52406   0.66443   0.05091   1.000
    H1      H    0.56571   0.62309   0.89151   1.000
    H2      H    0.57885   0.94329   0.96023   1.000
    H3      H    0.53468   0.98397   0.11964   1.000
    H4      H    0.60650   0.67090   0.77873   1.000
    H5      H    0.54453   0.88582   0.67871   1.000
    H6      H    0.74772   0.67932   0.70275   1.000
    H7      H    0.71197   0.68015   0.44771   1.000
    H8      H    0.97614   0.61298   0.94800   1.000
    H9      H    0.93420   0.73083   0.10806   1.000
    H10     H    0.92116   0.98281   0.04017   1.000
    H11     H    0.96565   0.86429   0.88070   1.000
    H12     H    0.89375   0.89140   0.22117   1.000
    H13     H    0.95212   0.20785   0.32087   1.000
    H14     H    0.75310   0.97391   0.29782   1.000
    H15     H    0.78760   0.23098   0.55258   1.000
    H16     H    0.47599   0.33557   0.94914   1.000
    H17     H    0.43439   0.37692   0.10855   1.000
    H18     H    0.42133   0.05672   0.03985   1.000
    H19     H    0.46545   0.01604   0.88043   1.000
    H20     H    0.39365   0.32911   0.22134   1.000
    H21     H    0.45555   0.11416   0.32136   1.000
    H22     H    0.25243   0.32070   0.29729   1.000
    H23     H    0.28810   0.31986   0.55234   1.000
    H24     H    0.02385   0.38702   0.05144   1.000
    H25     H    0.06578   0.26917   0.89198   1.000
    H26     H    0.07885   0.01719   0.95987   1.000
    H27     H    0.03436   0.13572   0.11930   1.000
    H28     H    0.10624   0.10860   0.77887   1.000
    H29     H    0.04791   0.79215   0.67916   1.000
    H30     H    0.24692   0.02611   0.70225   1.000
    H31     H    0.21244   0.76906   0.44747   1.000
    C32     C    0.50337   0.85090   0.18895   1.000
    C33     C    0.52702   0.82634   0.09404   1.000
    C34     C    0.53574   0.72459   0.03003   1.000
    C35     C    0.55904   0.70219   0.94169   1.000
    C36     C    0.57425   0.78088   0.91592   1.000
    C37     C    0.56603   0.88298   0.98070   1.000
    C38     C    0.54219   0.90543   0.06881   1.000
    C39     C    0.59837   0.75343   0.82233   1.000
    C40     C    0.57666   0.82805   0.50061   1.000
    C41     C    0.62264   0.78622   0.55701   1.000
    C42     C    0.59711   0.82451   0.64792   1.000
    C43     C    0.63816   0.78248   0.70036   1.000
    C44     C    0.71022   0.70798   0.66198   1.000
    C45     C    0.73776   0.67174   0.57160   1.000
    C46     C    0.69215   0.70891   0.51823   1.000
    C47     C    0.81793   0.59583   0.53564   1.000
    C48     C    0.99688   0.66174   0.81091   1.000
    C49     C    0.97323   0.73201   0.90588   1.000
    C50     C    0.96442   0.69407   0.96968   1.000
    C51     C    0.94096   0.75991   0.05805   1.000
    C52     C    0.92564   0.86443   0.08405   1.000
    C53     C    0.93402   0.90197   0.01949   1.000
    C54     C    0.95805   0.83642   0.93136   1.000
    C55     C    0.90129   0.93041   0.17764   1.000
    C56     C    0.92006   0.32819   0.49910   1.000
    C57     C    0.87526   0.22906   0.44288   1.000
    C58     C    0.90057   0.17657   0.35190   1.000
    C59     C    0.86072   0.08122   0.29970   1.000
    C60     C    0.78988   0.04404   0.33838   1.000
    C61     C    0.76265   0.09787   0.42878   1.000
    C62     C    0.80719   0.18939   0.48198   1.000
    C63     C    0.68365   0.05699   0.46519   1.000
    C64     C    0.49667   0.14910   0.81110   1.000
    C65     C    0.47307   0.17367   0.90602   1.000
    C66     C    0.46435   0.27542   0.97003   1.000
    C67     C    0.44106   0.29782   0.05837   1.000
    C68     C    0.42589   0.21913   0.08410   1.000
    C69     C    0.43412   0.11703   0.01930   1.000
    C70     C    0.45795   0.09457   0.93126   1.000
    C71     C    0.40178   0.24658   0.17774   1.000
    C72     C    0.42339   0.17194   0.49940   1.000
    C73     C    0.37744   0.21377   0.44304   1.000
    C74     C    0.40297   0.17548   0.35214   1.000
    C75     C    0.36196   0.21752   0.29969   1.000
    C76     C    0.28990   0.29202   0.33800   1.000
    C77     C    0.26236   0.32827   0.42838   1.000
    C78     C    0.30793   0.29109   0.48182   1.000
    C79     C    0.18220   0.40421   0.46439   1.000
    C80     C    0.00315   0.33827   0.18913   1.000
    C81     C    0.02677   0.26799   0.09416   1.000
    C82     C    0.03557   0.30593   0.03036   1.000
    C83     C    0.05903   0.24008   0.94199   1.000
    C84     C    0.07435   0.13557   0.91599   1.000
    C85     C    0.06598   0.09804   0.98055   1.000
    C86     C    0.04196   0.16358   0.06868   1.000
    C87     C    0.09871   0.06959   0.82240   1.000
    C88     C    0.07999   0.67183   0.50080   1.000
    C89     C    0.12478   0.77096   0.55716   1.000
    C90     C    0.09946   0.82344   0.64814   1.000
    C91     C    0.13931   0.91879   0.70034   1.000
    C92     C    0.21015   0.95597   0.66168   1.000
    C93     C    0.23738   0.90215   0.57127   1.000
    C94     C    0.19285   0.81063   0.51807   1.000
    C95     C    0.31638   0.94303   0.53487   1.000
    N96     N    0.60856   0.81902   0.79040   1.000
    N97     N    0.89026   0.02785   0.20958   1.000
    N98     N    0.39156   0.18098   0.20961   1.000
    N99     N    0.10976   0.97215   0.79046   1.000
    O100    O    0.49230   0.77870   0.21279   1.000
    O101    O    0.49644   0.94446   0.24691   1.000
    O102    O    0.57583   0.77622   0.41639   1.000
    O103    O    0.53718   0.91778   0.53872   1.000
    O104    O    0.85626   0.56816   0.59019   1.000
    O105    O    0.84513   0.56335   0.45363   1.000
    O106    O    0.00000   0.56560   0.78690   1.000
    O107    O    0.00386   0.69742   0.75311   1.000
    O108    O    0.92046   0.36113   0.58345   1.000
    O109    O    0.95906   0.37985   0.46090   1.000
    O110    O    0.64500   0.97485   0.41060   1.000
    O111    O    0.65769   0.10579   0.54761   1.000
    O112    O    0.50775   0.22129   0.78726   1.000
    O113    O    0.50362   0.05554   0.75315   1.000
    O114    O    0.42422   0.22377   0.58367   1.000
    O115    O    0.46285   0.08219   0.46134   1.000
    O116    O    0.14394   0.43192   0.40983   1.000
    O117    O    0.15495   0.43665   0.54638   1.000
    O118    O    0.99227   0.43441   0.21315   1.000
    O119    O    0.99618   0.30258   0.24694   1.000
    O120    O    0.07956   0.63892   0.41659   1.000
    O121    O    0.04102   0.62014   0.53910   1.000
    O122    O    0.35504   0.02516   0.58947   1.000
    O123    O    0.34236   0.89422   0.45245   1.000
loop_
    _geom_bond_atom_site_label_1
    _geom_bond_atom_site_label_2
    _geom_bond_distance
    _geom_bond_site_symmetry_2
    _ccdc_geom_bond_type
    C69    H18       1.08993      .   S
    C69    C68       1.40871      .   S
    C69    C70       1.38667  1_554   S
    C53    H10       1.08922      .   S
    C53    C52       1.40867      .   S
    C53    C54       1.38785  1_554   S
    C34    H0        1.08916      .   S
    C34    C33       1.40156      .   S
    C34    C35       1.39008  1_554   S
    C82    H24       1.08912      .   S
    C82    C81       1.40156      .   S
    C82    C83       1.39014  1_554   S
    C51    C52       1.40745      .   S
    C51    H9        1.09155      .   S
    C51    C50       1.39015  1_554   S
    C67    C68       1.40701      .   S
    C67    H17       1.09152      .   S
    C67    C66       1.39005  1_554   S
    C86    C81       1.40720      .   S
    C86    H27       1.08901      .   S
    C86    C85       1.38783  1_554   S
    C38    C33       1.40715      .   S
    C38    H3        1.08973      .   S
    C38    C37       1.38781  1_554   S
    C52    C55       1.45938      .   S
    C68    C71       1.46030      .   S
    C33    C32       1.48793      .   S
    C81    C80       1.48793      .   S
    C55    N97       1.29038  1_565   S
    C55    H12       1.10538      .   S
    C71    N98       1.29019      .   S
    C71    H20       1.10535      .   S
    C32    O100      1.28844      .   S
    C32    O101      1.28348      .   S
    C80    O118      1.28866  1_455   S
    C80    O119      1.28311  1_455   S
    N97    C59       1.40467      .   S
    N98    C75       1.40475      .   S
    H22    C76       1.08738      .   S
    H14    C60       1.08824  1_565   S
    C75    C76       1.40277      .   S
    C75    C74       1.40472      .   S
    C59    C60       1.40291      .   S
    C59    C58       1.40476      .   S
    H13    C58       1.08866      .   S
    H21    C74       1.08859      .   S
    C76    C77       1.40227      .   S
    C60    C61       1.40089      .   S
    C58    C57       1.40104      .   S
    C74    C73       1.40092      .   S
    O116   C79       1.27685      .   S
    O110   C63       1.27706  1_565   S
    O102   C40       1.26974      .   S
    O120   C88       1.26876      .   S
    C77    C79       1.49418      .   S
    C77    C78       1.39812      .   S
    C61    C63       1.49388      .   S
    C61    C62       1.39804      .   S
    C57    C62       1.40283      .   S
    C57    C56       1.48729      .   S
    C73    C78       1.40295      .   S
    C73    C72       1.48676      .   S
    H31    C94       1.08801      .   S
    H7     C46       1.08798      .   S
    O123   C95       1.28087      .   S
    O105   C47       1.28092      .   S
    O109   C56       1.29493      .   S
    O115   C72       1.29576      .   S
    C79    O117      1.28087      .   S
    C63    O111      1.28083      .   S
    C78    H23       1.08801      .   S
    C62    H15       1.08801      .   S
    C56    O108      1.27091      .   S
    C72    O114      1.27043      .   S
    C40    O103      1.29579      .   S
    C40    C41       1.48739      .   S
    C88    O121      1.29632      .   S
    C88    C89       1.48770      .   S
    C94    C89       1.40279      .   S
    C94    C93       1.39798      .   S
    C46    C41       1.40295      .   S
    C46    C45       1.39725      .   S
    C95    C93       1.49381      .   S
    C95    O122      1.27708  1_565   S
    C47    C45       1.49416      .   S
    C47    O104      1.27674      .   S
    C41    C42       1.40102      .   S
    C89    C90       1.40105      .   S
    C93    C92       1.40103      .   S
    C45    C44       1.40223      .   S
    C42    H5        1.08858      .   S
    C42    C43       1.40465      .   S
    C90    H29       1.08863      .   S
    C90    C91       1.40472      .   S
    C92    C91       1.40282      .   S
    C92    H30       1.08825  1_565   S
    C44    C43       1.40287      .   S
    C44    H6        1.08822      .   S
    C91    N99       1.40470      .   S
    C43    N96       1.40412      .   S
    O107   C48       1.28296  1_455   S
    O113   C64       1.28348      .   S
    H4     C39       1.10536      .   S
    H28    C87       1.10535      .   S
    O106   C48       1.28125  1_455   S
    O112   C64       1.28841      .   S
    N96    C39       1.29084      .   S
    N99    C87       1.29038  1_565   S
    C48    C49       1.48799      .   S
    C64    C65       1.48794      .   S
    C39    C36       1.45954      .   S
    C87    C84       1.45939      .   S
    H19    C70       1.08973      .   S
    H11    C54       1.08966      .   S
    H1     C35       1.09152      .   S
    H25    C83       1.09151      .   S
    C49    C54       1.40721      .   S
    C49    C50       1.40160      .   S
    C65    C70       1.40718      .   S
    C65    C66       1.40157      .   S
    C36    C35       1.40750      .   S
    C36    C37       1.40861      .   S
    C84    C83       1.40744      .   S
    C84    C85       1.40865      .   S
    H8     C50       1.08758      .   S
    H16    C66       1.08917      .   S
    H26    C85       1.08924      .   S
    H2     C37       1.08915      .   S
