# CIF file generated by openbabel 2.4.90, see http://openbabel.sf.net
data_I
_chemical_name_common ''
_cell_length_a 14.019
_cell_length_b 14.615
_cell_length_c 16.671
_cell_angle_alpha 116.044
_cell_angle_beta 88.38
_cell_angle_gamma 90.024
_space_group_name_H-M_alt 'P 1'
_space_group_name_Hall 'P 1'
loop_
    _symmetry_equiv_pos_as_xyz
    x,y,z
loop_
    _atom_site_label
    _atom_site_type_symbol
    _atom_site_fract_x
    _atom_site_fract_y
    _atom_site_fract_z
    _atom_site_occupancy
    N0      N    0.61369   0.76875   0.79403   1.000
    N1      N    0.88563   0.97393   0.20602   1.000
    N2      N    0.38641   0.23126   0.20601   1.000
    N3      N    0.11414   0.02608   0.79400   1.000
    Zr4     Zr   0.99118   0.47594   0.37459   1.000
    O5      O    0.96078   0.33842   0.34324   1.000
    O6      O    0.10908   0.40926   0.33685   1.000
    O7      O    0.02206   0.35828   0.20926   1.000
    O8      O    0.02255   0.34180   0.46349   1.000
    O9      O    0.87855   0.56007   0.48933   1.000
    Zr10    Zr   0.49051   0.89893   0.37440   1.000
    O11     O    0.60860   0.92717   0.33683   1.000
    O12     O    0.46103   0.00492   0.34317   1.000
    O13     O    0.37790   0.93013   0.48906   1.000
    O14     O    0.52153   0.85136   0.20911   1.000
    Zr15    Zr   0.50954   0.10105   0.62565   1.000
    O16     O    0.62208   0.06986   0.51099   1.000
    O17     O    0.47854   0.14863   0.79094   1.000
    O18     O    0.39138   0.07282   0.66322   1.000
    O19     O    0.53903   0.99507   0.65688   1.000
    Zr20    Zr   0.00893   0.52407   0.62545   1.000
    O21     O    0.97747   0.65820   0.53655   1.000
    O22     O    0.97699   0.64173   0.79077   1.000
    O23     O    0.12155   0.43994   0.51071   1.000
    O24     O    0.03924   0.66158   0.65679   1.000
    O25     O    0.89104   0.59075   0.66319   1.000
    O26     O    0.03056   0.63267   0.49235   1.000
    O27     O    0.96946   0.36734   0.50768   1.000
    O28     O    0.47178   0.13926   0.51697   1.000
    O29     O    0.52580   0.86599   0.47779   1.000
loop_
    _geom_bond_atom_site_label_1
    _geom_bond_atom_site_label_2
    _geom_bond_distance
    _geom_bond_site_symmetry_2
    _ccdc_geom_bond_type
    Zr4    O5        1.89296      .   S
    N1     O5        4.91440  1_565   S
    Zr4    O6        1.86587  1_655   S
    N2     O6        4.60298      .   S
    Zr4    O7        2.55187  1_655   S
    N3     O7        6.56881  1_556   S
    Zr4    O8        2.97009  1_655   S
    N3     O8        8.71965      .   S
    Zr4    O9        2.33011      .   S
    N0     O9        5.85073      .   S
    Zr10   O11       1.86313      .   S
    N1     O11       4.59710      .   S
    Zr10   O12       1.88739  1_565   S
    N2     O12       4.90357      .   S
    Zr10   O13       2.32776      .   S
    N3     O13       5.84506  1_545   S
    Zr10   O14       2.55263      .   S
    N0     O14       6.57028  1_556   S
    Zr15   O16       2.32722      .   S
    N1     O16       5.84362  1_565   S
    Zr15   O17       2.55255      .   S
    N2     O17       6.57006  1_554   S
    Zr15   O18       1.86391      .   S
    N3     O18       4.59922      .   S
    Zr15   O19       1.88738  1_545   S
    N0     O19       4.90344      .   S
    Zr20   O21       2.97038  1_455   S
    N1     O21       8.72052      .   S
    Zr20   O22       2.55395  1_455   S
    N1     O22       6.56693  1_554   S
    Zr20   O23       2.33008      .   S
    N2     O23       5.85064      .   S
    Zr20   O24       1.89270      .   S
    N3     O24       4.91367  1_545   S
    Zr20   O25       1.86582  1_455   S
    N0     O25       4.60315      .   S
    Zr4    O26       2.34890  1_655   S
    N3     O26       5.88711  1_545   S
    N1     O27       5.88797  1_565   S
    Zr20   O27       2.34926  1_455   S
    Zr15   O28       2.19496      .   S
    N2     O28       6.04862      .   S
    N0     O29       6.18720      .   S
    Zr10   O29       2.05537      .   S
