# CIF file generated by openbabel 2.4.90, see http://openbabel.sf.net
data_I
_chemical_name_common ''
_cell_length_a 18.39
_cell_length_b 18.388
_cell_length_c 18.393
_cell_angle_alpha 60.437
_cell_angle_beta 60.428
_cell_angle_gamma 60.436
_space_group_name_H-M_alt 'P 1'
_space_group_name_Hall 'P 1'
loop_
    _symmetry_equiv_pos_as_xyz
    x,y,z
loop_
    _atom_site_label
    _atom_site_type_symbol
    _atom_site_fract_x
    _atom_site_fract_y
    _atom_site_fract_z
    _atom_site_occupancy
    H0      H    0.33587   0.04849   0.56783   1.000
    H1      H    0.04682   0.33593   0.04701   1.000
    H2      H    0.56798   0.04855   0.33590   1.000
    H3      H    0.04925   0.56717   0.04923   1.000
    H4      H    0.33588   0.56786   0.04848   1.000
    H5      H    0.04931   0.04926   0.56709   1.000
    H6      H    0.56794   0.33588   0.04860   1.000
    H7      H    0.04681   0.04701   0.33596   1.000
    H8      H    0.33593   0.04698   0.04698   1.000
    H9      H    0.04848   0.56793   0.33590   1.000
    H10     H    0.56727   0.04917   0.04920   1.000
    H11     H    0.04855   0.33588   0.56780   1.000
    H12     H    0.95145   0.66412   0.43213   1.000
    H13     H    0.66406   0.95300   0.95301   1.000
    H14     H    0.95151   0.43207   0.66408   1.000
    H15     H    0.43272   0.95081   0.95079   1.000
    H16     H    0.43205   0.66413   0.95139   1.000
    H17     H    0.95068   0.95075   0.43289   1.000
    H18     H    0.66411   0.43214   0.95151   1.000
    H19     H    0.95318   0.95300   0.66402   1.000
    H20     H    0.95317   0.66407   0.95298   1.000
    H21     H    0.43201   0.95145   0.66408   1.000
    H22     H    0.95073   0.43283   0.95076   1.000
    H23     H    0.66412   0.95151   0.43214   1.000
    C24     C    0.40777   0.02686   0.53891   1.000
    C25     C    0.02594   0.40780   0.02605   1.000
    C26     C    0.53898   0.02690   0.40778   1.000
    C27     C    0.02728   0.53852   0.02727   1.000
    C28     C    0.40778   0.53893   0.02684   1.000
    C29     C    0.02731   0.02729   0.53840   1.000
    C30     C    0.53896   0.40777   0.02692   1.000
    C31     C    0.02593   0.02605   0.40781   1.000
    C32     C    0.40781   0.02602   0.02603   1.000
    C33     C    0.02685   0.53896   0.40770   1.000
    C34     C    0.53857   0.02724   0.02727   1.000
    C35     C    0.02689   0.40777   0.53891   1.000
    C36     C    0.97310   0.59223   0.46107   1.000
    C37     C    0.59219   0.97396   0.97396   1.000
    C38     C    0.97314   0.46104   0.59220   1.000
    C39     C    0.46143   0.97274   0.97272   1.000
    C40     C    0.46103   0.59223   0.97307   1.000
    C41     C    0.97268   0.97271   0.46150   1.000
    C42     C    0.59221   0.46107   0.97315   1.000
    C43     C    0.97406   0.97395   0.59217   1.000
    C44     C    0.97404   0.59220   0.97394   1.000
    C45     C    0.46102   0.97310   0.59220   1.000
    C46     C    0.97270   0.46148   0.97270   1.000
    C47     C    0.59222   0.97315   0.46107   1.000
    C48     C    0.44642   0.05408   0.44638   1.000
    C49     C    0.05358   0.44598   0.05368   1.000
    C50     C    0.44641   0.44638   0.05409   1.000
    C51     C    0.05361   0.05368   0.44596   1.000
    C52     C    0.44602   0.05364   0.05365   1.000
    C53     C    0.05407   0.44640   0.44638   1.000
    C54     C    0.94592   0.55359   0.55360   1.000
    C55     C    0.55397   0.94635   0.94634   1.000
    C56     C    0.55358   0.55362   0.94590   1.000
    C57     C    0.94638   0.94633   0.55402   1.000
    C58     C    0.94640   0.55402   0.94631   1.000
    C59     C    0.55357   0.94593   0.55360   1.000
loop_
    _geom_bond_atom_site_label_1
    _geom_bond_atom_site_label_2
    _geom_bond_distance
    _geom_bond_site_symmetry_2
    _ccdc_geom_bond_type
    C32    H8        1.08865      .   S
    C32    C52       1.40319      .   S
    C32    C39       1.39065  1_544   S
    C25    H1        1.08865      .   S
    C25    C49       1.40315      .   S
    C25    C46       1.39095  1_454   S
    C28    H4        1.08858      .   S
    C28    C50       1.40312      .   S
    C28    C40       1.39016  1_554   S
    C30    H6        1.08858      .   S
    C30    C50       1.40316      .   S
    C30    C42       1.39018  1_554   S
    C27    H3        1.08856      .   S
    C27    C49       1.40343      .   S
    C27    C44       1.39069  1_454   S
    C34    H10       1.08848      .   S
    C34    C52       1.40347      .   S
    C34    C37       1.39066  1_544   S
    H9     C33       1.08740      .   S
    H2     C26       1.08860      .   S
    H7     C31       1.08860      .   S
    C33    C53       1.40327      .   S
    C33    C36       1.39130  1_455   S
    C26    C48       1.40319      .   S
    C26    C47       1.39023  1_545   S
    C31    C51       1.40322      .   S
    C31    C41       1.39057  1_445   S
    H12    C36       1.08857      .   S
    H23    C47       1.08859      .   S
    H17    C41       1.08849      .   S
    C51    C29       1.40216      .   S
    C48    C24       1.40311      .   S
    C53    C35       1.40310      .   S
    C36    C54       1.40310      .   S
    C47    C59       1.40311      .   S
    C41    C57       1.40344      .   S
    C29    H5        1.08974      .   S
    C29    C43       1.39058  1_445   S
    C35    H11       1.08851      .   S
    C35    C38       1.39026  1_455   S
    C24    H0        1.08857      .   S
    C24    C45       1.39023  1_545   S
    C54    C38       1.40315      .   S
    C59    C45       1.40318      .   S
    C57    C43       1.40324      .   S
    C43    H19       1.08859      .   S
    C45    H21       1.08860      .   S
    C38    H14       1.08857      .   S
    C56    C40       1.40316      .   S
    C56    C42       1.40310      .   S
    C58    C46       1.40345      .   S
    C58    C44       1.40315      .   S
    C55    C39       1.40346      .   S
    C55    C37       1.40317      .   S
    H22    C46       1.08830      .   S
    H15    C39       1.08848      .   S
    H16    C40       1.08860      .   S
    H18    C42       1.08858      .   S
    H20    C44       1.08866      .   S
    H13    C37       1.08865      .   S
