# CIF file generated by openbabel 2.4.90, see http://openbabel.sf.net
data_I
_chemical_name_common ''
_cell_length_a 18.39
_cell_length_b 18.388
_cell_length_c 18.393
_cell_angle_alpha 60.437
_cell_angle_beta 60.428
_cell_angle_gamma 60.436
_space_group_name_H-M_alt 'P 1'
_space_group_name_Hall 'P 1'
loop_
    _symmetry_equiv_pos_as_xyz
    x,y,z
loop_
    _atom_site_label
    _atom_site_type_symbol
    _atom_site_fract_x
    _atom_site_fract_y
    _atom_site_fract_z
    _atom_site_occupancy
    Zn0     Zn   0.20697   0.38015   0.20696   1.000
    Zn1     Zn   0.20704   0.20697   0.38011   1.000
    Zn2     Zn   0.20596   0.20605   0.20601   1.000
    Zn3     Zn   0.79302   0.61985   0.79302   1.000
    Zn4     Zn   0.61982   0.79303   0.79290   1.000
    Zn5     Zn   0.79295   0.79303   0.61987   1.000
    Zn6     Zn   0.79403   0.79395   0.79397   1.000
    Zn7     Zn   0.38017   0.20697   0.20703   1.000
    C8      C    0.38914   0.11178   0.38909   1.000
    C9      C    0.11089   0.38840   0.11102   1.000
    C10     C    0.38911   0.38909   0.11180   1.000
    C11     C    0.11093   0.11103   0.38837   1.000
    C12     C    0.38846   0.11098   0.11100   1.000
    C13     C    0.11179   0.38911   0.38907   1.000
    C14     C    0.88820   0.61089   0.61091   1.000
    C15     C    0.61153   0.88902   0.88899   1.000
    C16     C    0.61088   0.61091   0.88818   1.000
    C17     C    0.88906   0.88897   0.61161   1.000
    C18     C    0.88909   0.61159   0.88896   1.000
    C19     C    0.61086   0.88823   0.61089   1.000
    O20     O    0.24989   0.24988   0.24987   1.000
    O21     O    0.75010   0.75012   0.75011   1.000
    O22     O    0.42860   0.13416   0.30540   1.000
    O23     O    0.13344   0.42783   0.13350   1.000
    O24     O    0.30547   0.13391   0.42853   1.000
    O25     O    0.13253   0.30472   0.13273   1.000
    O26     O    0.42856   0.30543   0.13419   1.000
    O27     O    0.13250   0.13279   0.30471   1.000
    O28     O    0.30544   0.42855   0.13389   1.000
    O29     O    0.13351   0.13351   0.42777   1.000
    O30     O    0.42791   0.13344   0.13355   1.000
    O31     O    0.13409   0.30545   0.42851   1.000
    O32     O    0.30478   0.13266   0.13268   1.000
    O33     O    0.13402   0.42857   0.30543   1.000
    O34     O    0.86598   0.57143   0.69456   1.000
    O35     O    0.57208   0.86656   0.86643   1.000
    O36     O    0.86590   0.69455   0.57147   1.000
    O37     O    0.69521   0.86733   0.86730   1.000
    O38     O    0.69454   0.57146   0.86608   1.000
    O39     O    0.86749   0.86721   0.69527   1.000
    O40     O    0.57142   0.69457   0.86580   1.000
    O41     O    0.86648   0.86649   0.57220   1.000
    O42     O    0.86654   0.57216   0.86648   1.000
    O43     O    0.69452   0.86610   0.57144   1.000
    O44     O    0.86746   0.69528   0.86724   1.000
    O45     O    0.57139   0.86583   0.69453   1.000
loop_
    _geom_bond_atom_site_label_1
    _geom_bond_atom_site_label_2
    _geom_bond_distance
    _geom_bond_site_symmetry_2
    _ccdc_geom_bond_type
    C12    O32       1.27745      .   S
    C12    O30       1.27701      .   S
    C9     O25       1.27743      .   S
    C9     O23       1.27685      .   S
    C10    O28       1.27709      .   S
    C10    O26       1.27699      .   S
    O32    Zn2       1.97465      .   S
    O25    Zn2       1.97427      .   S
    O23    Zn0       1.97157      .   S
    O30    Zn7       1.97130      .   S
    O28    Zn0       1.97119      .   S
    O26    Zn7       1.97096      .   S
    Zn2    O27       1.97411      .   S
    Zn0    O20       1.96662      .   S
    Zn0    O33       1.97151      .   S
    Zn7    O22       1.97053      .   S
    O20    Zn1       1.96652      .   S
    O27    C11       1.27743      .   S
    O22    C8        1.27770      .   S
    O33    C13       1.27700      .   S
    Zn1    O29       1.97116      .   S
    Zn1    O31       1.97126      .   S
    Zn1    O24       1.97124      .   S
    C11    O29       1.27691      .   S
    C13    O31       1.27704      .   S
    C8     O24       1.27706      .   S
    O43    C19       1.27710      .   S
    O43    Zn5       1.97131      .   S
    O36    C14       1.27703      .   S
    O36    Zn5       1.97129      .   S
    O41    C17       1.27707      .   S
    O41    Zn5       1.97114      .   S
    C19    O45       1.27699      .   S
    C14    O34       1.27714      .   S
    C17    O39       1.27743      .   S
    Zn5    O21       1.96652      .   S
    O45    Zn4       1.97052      .   S
    O34    Zn3       1.97137      .   S
    O39    Zn6       1.97411      .   S
    O21    Zn3       1.96662      .   S
    Zn4    O40       1.97097      .   S
    Zn4    O35       1.97202      .   S
    Zn3    O38       1.97120      .   S
    Zn3    O42       1.97136      .   S
    Zn6    O44       1.97420      .   S
    Zn6    O37       1.97458      .   S
    O40    C16       1.27699      .   S
    O38    C16       1.27707      .   S
    O35    C15       1.27707      .   S
    O42    C18       1.27699      .   S
    O44    C18       1.27745      .   S
    O37    C15       1.27742      .   S
    O20    Zn7       1.96676      .   S
    O20    Zn2       1.96992      .   S
    O21    Zn4       1.96674      .   S
    O21    Zn6       1.96995      .   S
