# CIF file generated by openbabel 2.4.90, see http://openbabel.sf.net
data_I
_chemical_name_common ''
_cell_length_a 18.39
_cell_length_b 18.388
_cell_length_c 18.393
_cell_angle_alpha 60.437
_cell_angle_beta 60.428
_cell_angle_gamma 60.436
_space_group_name_H-M_alt 'P 1'
_space_group_name_Hall 'P 1'
loop_
    _symmetry_equiv_pos_as_xyz
    x,y,z
loop_
    _atom_site_label
    _atom_site_type_symbol
    _atom_site_fract_x
    _atom_site_fract_y
    _atom_site_fract_z
    _atom_site_occupancy
    C0      C    0.38914   0.11178   0.38909   1.000
    C1      C    0.11089   0.38840   0.11102   1.000
    C2      C    0.38911   0.38909   0.11180   1.000
    C3      C    0.11093   0.11103   0.38837   1.000
    C4      C    0.38846   0.11098   0.11100   1.000
    C5      C    0.11179   0.38911   0.38907   1.000
    C6      C    0.88820   0.61089   0.61091   1.000
    C7      C    0.61153   0.88902   0.88899   1.000
    C8      C    0.61088   0.61091   0.88818   1.000
    C9      C    0.88906   0.88897   0.61161   1.000
    C10     C    0.88909   0.61159   0.88896   1.000
    C11     C    0.61086   0.88823   0.61089   1.000
