# CIF file generated by openbabel 2.4.90, see http://openbabel.sf.net
data_I
_chemical_name_common ''
_cell_length_a 21.028
_cell_length_b 18.14
_cell_length_c 18.136
_cell_angle_alpha 119.953
_cell_angle_beta 89.998
_cell_angle_gamma 89.995
_space_group_name_H-M_alt 'P 1'
_space_group_name_Hall 'P 1'
loop_
    _symmetry_equiv_pos_as_xyz
    x,y,z
loop_
    _atom_site_label
    _atom_site_type_symbol
    _atom_site_fract_x
    _atom_site_fract_y
    _atom_site_fract_z
    _atom_site_occupancy
    Zr0     Zr   0.27785   0.55060   0.07570   1.000
    Zr1     Zr   0.77786   0.55052   0.07500   1.000
    Zr2     Zr   0.11120   0.52531   0.44960   1.000
    Zr3     Zr   0.61119   0.52526   0.44951   1.000
    Zr4     Zr   0.44453   0.92436   0.47506   1.000
    Zr5     Zr   0.94452   0.92433   0.47511   1.000
    Zr6     Zr   0.02785   0.44923   0.92431   1.000
    Zr7     Zr   0.52785   0.44938   0.92426   1.000
    Zr8     Zr   0.36119   0.47471   0.55044   1.000
    Zr9     Zr   0.86119   0.47459   0.55034   1.000
    Zr10    Zr   0.19451   0.07558   0.52495   1.000
    Zr11    Zr   0.69452   0.07553   0.52476   1.000
    N12     N    0.61568   0.37876   0.53625   1.000
    O13     O    0.64988   0.24786   0.51928   1.000
    O14     O    0.51346   0.43269   0.55175   1.000
    N15     N    0.78230   0.46332   0.84241   1.000
    O16     O    0.81652   0.48016   0.72831   1.000
    O17     O    0.68009   0.44792   0.88102   1.000
    N18     N    0.28227   0.46340   0.84246   1.000
    O19     O    0.31651   0.48027   0.72838   1.000
    O20     O    0.18008   0.44790   0.88107   1.000
    N21     N    0.11568   0.37879   0.53623   1.000
    O22     O    0.14988   0.24791   0.51937   1.000
    O23     O    0.01345   0.43266   0.55070   1.000
    N24     N    0.86567   0.62112   0.46359   1.000
    O25     O    0.89987   0.75201   0.48055   1.000
    O26     O    0.76345   0.56721   0.44813   1.000
    N27     N    0.94893   0.15740   0.62084   1.000
    O28     O    0.84675   0.11880   0.56671   1.000
    O29     O    0.98317   0.27141   0.75185   1.000
    N30     N    0.03227   0.53645   0.15754   1.000
    O31     O    0.06652   0.51966   0.27163   1.000
    O32     O    0.93009   0.55191   0.11879   1.000
    N33     N    0.53227   0.53659   0.15752   1.000
    O34     O    0.56650   0.51972   0.27159   1.000
    O35     O    0.43007   0.55203   0.11892   1.000
    N36     N    0.44894   0.15749   0.62079   1.000
    O37     O    0.34674   0.11887   0.56677   1.000
    O38     O    0.48317   0.27153   0.75179   1.000
    N39     N    0.36571   0.62122   0.46366   1.000
    O40     O    0.39991   0.75208   0.48059   1.000
    O41     O    0.26348   0.56733   0.44823   1.000
    N42     N    0.69899   0.84245   0.37906   1.000
    O43     O    0.59678   0.88105   0.43313   1.000
    O44     O    0.73321   0.72840   0.24792   1.000
    N45     N    0.19893   0.84246   0.37919   1.000
    O46     O    0.23316   0.72844   0.24818   1.000
    O47     O    0.09674   0.88108   0.43326   1.000
    O48     O    0.68515   0.93705   0.43899   1.000
    O49     O    0.51844   0.50198   0.06285   1.000
    O50     O    0.85182   0.56090   0.49803   1.000
    O51     O    0.18510   0.93707   0.43914   1.000
    O52     O    0.60183   0.43897   0.50182   1.000
    O53     O    0.10184   0.43901   0.50184   1.000
    O54     O    0.01845   0.50185   0.06288   1.000
    O55     O    0.43512   0.06287   0.56085   1.000
    O56     O    0.76846   0.49794   0.93692   1.000
    O57     O    0.26844   0.49801   0.93712   1.000
    O58     O    0.93511   0.06281   0.56090   1.000
    O59     O    0.35185   0.56101   0.49811   1.000
loop_
    _geom_bond_atom_site_label_1
    _geom_bond_atom_site_label_2
    _geom_bond_distance
    _geom_bond_site_symmetry_2
    _ccdc_geom_bond_type
    N12    O13       2.34948      .   S
    Zr11   O13       3.31247      .   S
    N12    O14       2.31984      .   S
    Zr8    O14       3.29403      .   S
    N15    O16       2.35036      .   S
    Zr9    O16       3.31432      .   S
    N15    O17       2.32002      .   S
    Zr7    O17       3.29290      .   S
    N18    O19       2.35032      .   S
    Zr8    O19       3.31399      .   S
    N18    O20       2.32024      .   S
    Zr6    O20       3.29296      .   S
    N21    O22       2.34999      .   S
    Zr10   O22       3.31350      .   S
    N21    O23       2.32128      .   S
    Zr9    O23       3.29160  1_655   S
    N24    O25       2.34952      .   S
    Zr5    O25       3.31223      .   S
    N24    O26       2.31987      .   S
    Zr3    O26       3.29394      .   S
    N27    O28       2.32061      .   S
    Zr11   O28       3.29329      .   S
    N27    O29       2.35245      .   S
    Zr6    O29       3.31610  1_455   S
    N30    O31       2.34993      .   S
    Zr2    O31       3.31363      .   S
    N30    O32       2.32089  1_455   S
    Zr1    O32       3.29518      .   S
    N33    O34       2.35022      .   S
    Zr3    O34       3.31390      .   S
    N33    O35       2.31998      .   S
    Zr0    O35       3.29264      .   S
    N36    O37       2.32033      .   S
    Zr10   O37       3.29311      .   S
    N36    O38       2.35256      .   S
    Zr7    O38       3.31650      .   S
    N39    O40       2.34918      .   S
    Zr4    O40       3.31222      .   S
    N39    O41       2.32015      .   S
    Zr2    O41       3.29460      .   S
    N42    O43       2.32057      .   S
    Zr4    O43       3.29372      .   S
    N42    O44       2.35378      .   S
    Zr1    O44       3.32012      .   S
    N45    O46       2.35233      .   S
    Zr0    O46       3.31624      .   S
    N45    O47       2.32022      .   S
    Zr5    O47       3.29274  1_655   S
    Zr11   O48       2.20614  1_545   S
    N42    O48       1.53244      .   S
    Zr7    O49       2.20735  1_556   S
    N33    O49       1.53301      .   S
    Zr9    O50       2.20760      .   S
    N24    O50       1.53289      .   S
    Zr10   O51       2.20661  1_545   S
    N45    O51       1.53263      .   S
    Zr3    O52       2.20718      .   S
    N12    O52       1.53264      .   S
    Zr2    O53       2.20651      .   S
    N21    O53       1.53194      .   S
    Zr6    O54       2.20699  1_556   S
    N30    O54       1.53283      .   S
    Zr4    O55       2.20663  1_565   S
    N36    O55       1.53269      .   S
    Zr1    O56       2.19885  1_554   S
    N15    O56       1.53028      .   S
    Zr0    O57       2.20718  1_554   S
    N18    O57       1.53292      .   S
    Zr5    O58       2.20613  1_565   S
    N27    O58       1.53236      .   S
    Zr8    O59       2.20750      .   S
    N39    O59       1.53291      .   S
