# CIF file generated by openbabel 2.4.90, see http://openbabel.sf.net
data_I
_chemical_name_common ''
_cell_length_a 21.028
_cell_length_b 18.14
_cell_length_c 18.136
_cell_angle_alpha 119.953
_cell_angle_beta 89.998
_cell_angle_gamma 89.995
_space_group_name_H-M_alt 'P 1'
_space_group_name_Hall 'P 1'
loop_
    _symmetry_equiv_pos_as_xyz
    x,y,z
loop_
    _atom_site_label
    _atom_site_type_symbol
    _atom_site_fract_x
    _atom_site_fract_y
    _atom_site_fract_z
    _atom_site_occupancy
    Zr0     Zr   0.27785   0.55060   0.07570   1.000
    Zr1     Zr   0.77786   0.55052   0.07500   1.000
    Zr2     Zr   0.11120   0.52531   0.44960   1.000
    Zr3     Zr   0.61119   0.52526   0.44951   1.000
    Zr4     Zr   0.44453   0.92436   0.47506   1.000
    Zr5     Zr   0.94452   0.92433   0.47511   1.000
    Zr6     Zr   0.02785   0.44923   0.92431   1.000
    Zr7     Zr   0.52785   0.44938   0.92426   1.000
    Zr8     Zr   0.36119   0.47471   0.55044   1.000
    Zr9     Zr   0.86119   0.47459   0.55034   1.000
    Zr10    Zr   0.19451   0.07558   0.52495   1.000
    Zr11    Zr   0.69452   0.07553   0.52476   1.000
    N12     N    0.61568   0.37876   0.53625   1.000
    O13     O    0.64988   0.24786   0.51928   1.000
    O14     O    0.61529   0.42911   0.50279   1.000
    O15     O    0.51346   0.43269   0.55175   1.000
    O16     O    0.58837   0.44883   0.50085   1.000
    N17     N    0.78230   0.46332   0.84241   1.000
    O18     O    0.75501   0.49895   0.94777   1.000
    O19     O    0.81652   0.48016   0.72831   1.000
    O20     O    0.78192   0.49692   0.92606   1.000
    O21     O    0.68009   0.44792   0.88102   1.000
    N22     N    0.28227   0.46340   0.84246   1.000
    O23     O    0.25499   0.49901   0.94798   1.000
    O24     O    0.31651   0.48027   0.72838   1.000
    O25     O    0.28189   0.49700   0.92626   1.000
    O26     O    0.18008   0.44790   0.88107   1.000
    N27     N    0.11568   0.37879   0.53623   1.000
    O28     O    0.14988   0.24791   0.51937   1.000
    O29     O    0.11530   0.42916   0.50283   1.000
    O30     O    0.01345   0.43266   0.55070   1.000
    O31     O    0.08838   0.44886   0.50086   1.000
    N32     N    0.86567   0.62112   0.46359   1.000
    O33     O    0.86528   0.57075   0.49705   1.000
    O34     O    0.83837   0.55105   0.49901   1.000
    O35     O    0.89987   0.75201   0.48055   1.000
    O36     O    0.76345   0.56721   0.44813   1.000
    N37     N    0.94893   0.15740   0.62084   1.000
    O38     O    0.84675   0.11880   0.56671   1.000
    O39     O    0.94855   0.07367   0.57075   1.000
    O40     O    0.98317   0.27141   0.75185   1.000
    O41     O    0.92167   0.05195   0.55104   1.000
    N42     N    0.03227   0.53645   0.15754   1.000
    O43     O    0.00500   0.50085   0.05203   1.000
    O44     O    0.06652   0.51966   0.27163   1.000
    O45     O    0.93009   0.55191   0.11879   1.000
    O46     O    0.03190   0.50284   0.07374   1.000
    N47     N    0.53227   0.53659   0.15752   1.000
    O48     O    0.56650   0.51972   0.27159   1.000
    O49     O    0.43007   0.55203   0.11892   1.000
    O50     O    0.50500   0.50097   0.05199   1.000
    O51     O    0.53189   0.50299   0.07371   1.000
    N52     N    0.44894   0.15749   0.62079   1.000
    O53     O    0.34674   0.11887   0.56677   1.000
    O54     O    0.44857   0.07373   0.57069   1.000
    O55     O    0.48317   0.27153   0.75179   1.000
    O56     O    0.42167   0.05201   0.55101   1.000
    N57     N    0.36571   0.62122   0.46366   1.000
    O58     O    0.39991   0.75208   0.48059   1.000
    O59     O    0.26348   0.56733   0.44823   1.000
    O60     O    0.36531   0.57085   0.49713   1.000
    O61     O    0.33839   0.55116   0.49910   1.000
    N62     N    0.79151   0.45908   0.13386   1.000
    O63     O    0.78809   0.48194   0.11914   1.000
    N64     N    0.62472   0.67473   0.54110   1.000
    O65     O    0.62134   0.63737   0.51820   1.000
    N66     N    0.69899   0.84245   0.37906   1.000
    O67     O    0.59678   0.88105   0.43313   1.000
    O68     O    0.67170   0.94791   0.44884   1.000
    O69     O    0.69859   0.92619   0.42914   1.000
    O70     O    0.73321   0.72840   0.24792   1.000
    N71     N    0.12462   0.67479   0.54126   1.000
    O72     O    0.12127   0.63742   0.51834   1.000
    N73     N    0.19893   0.84246   0.37919   1.000
    O74     O    0.23316   0.72844   0.24818   1.000
    O75     O    0.19855   0.92621   0.42930   1.000
    O76     O    0.09674   0.88108   0.43326   1.000
    O77     O    0.17166   0.94794   0.44898   1.000
    N78     N    0.04156   0.54060   0.86606   1.000
    O79     O    0.03813   0.51776   0.88062   1.000
    N80     N    0.37467   0.32524   0.45877   1.000
    O81     O    0.37130   0.36261   0.48169   1.000
    N82     N    0.87469   0.32511   0.45872   1.000
    O83     O    0.87132   0.36248   0.48162   1.000
    N84     N    0.20819   0.13387   0.67453   1.000
    O85     O    0.20477   0.11930   0.63713   1.000
    N86     N    0.54157   0.54077   0.86604   1.000
    O87     O    0.53814   0.51792   0.88059   1.000
    N88     N    0.70818   0.13389   0.67436   1.000
    O89     O    0.70477   0.11930   0.63696   1.000
    N90     N    0.95825   0.86597   0.32552   1.000
    O91     O    0.95482   0.88056   0.36292   1.000
    N92     N    0.45812   0.86609   0.32546   1.000
    O93     O    0.45472   0.88066   0.36286   1.000
    N94     N    0.29162   0.45921   0.13390   1.000
    O95     O    0.28817   0.48206   0.11935   1.000
loop_
    _geom_bond_atom_site_label_1
    _geom_bond_atom_site_label_2
    _geom_bond_distance
    _geom_bond_site_symmetry_2
    _ccdc_geom_bond_type
    N12    O13       2.34948      .   S
    Zr11   O13       3.31247      .   S
    N12    O14       1.32520      .   S
    Zr3    O14       2.38036      .   S
    N12    O15       2.31984      .   S
    Zr8    O15       3.29403      .   S
    N12    O16       1.78124      .   S
    Zr3    O16       2.07562      .   S
    N17    O18       1.77898      .   S
    Zr1    O18       2.06752  1_554   S
    N17    O19       2.35036      .   S
    Zr9    O19       3.31432      .   S
    N17    O20       1.32276      .   S
    Zr1    O20       2.37197  1_554   S
    N17    O21       2.32002      .   S
    Zr7    O21       3.29290      .   S
    N22    O23       1.78159      .   S
    Zr0    O23       2.07551  1_554   S
    N22    O24       2.35032      .   S
    Zr8    O24       3.31399      .   S
    N22    O25       1.32535      .   S
    Zr0    O25       2.38043  1_554   S
    N22    O26       2.32024      .   S
    Zr6    O26       3.29296      .   S
    N27    O28       2.34999      .   S
    Zr10   O28       3.31350      .   S
    N27    O29       1.32447      .   S
    Zr2    O29       2.37972      .   S
    N27    O30       2.32128      .   S
    Zr9    O30       3.29160  1_655   S
    N27    O31       1.78059      .   S
    Zr2    O31       2.07495      .   S
    N32    O33       1.32547      .   S
    Zr9    O33       2.38078      .   S
    N32    O34       1.78147      .   S
    Zr9    O34       2.07602      .   S
    N32    O35       2.34952      .   S
    Zr5    O35       3.31223      .   S
    N32    O36       2.31987      .   S
    Zr3    O36       3.29394      .   S
    N37    O38       2.32061      .   S
    Zr11   O38       3.29329      .   S
    N37    O39       1.32459      .   S
    Zr5    O39       2.37955  1_565   S
    N37    O40       2.35245      .   S
    Zr6    O40       3.31610  1_455   S
    N37    O41       1.78120      .   S
    Zr5    O41       2.07430  1_565   S
    N42    O43       1.78144      .   S
    Zr6    O43       2.07539  1_556   S
    N42    O44       2.34993      .   S
    Zr2    O44       3.31363      .   S
    N42    O45       2.32089  1_455   S
    Zr1    O45       3.29518      .   S
    N42    O46       1.32535      .   S
    Zr6    O46       2.38019  1_556   S
    N47    O48       2.35022      .   S
    Zr3    O48       3.31390      .   S
    N47    O49       2.31998      .   S
    Zr0    O49       3.29264      .   S
    N47    O50       1.78167      .   S
    Zr7    O50       2.07568  1_556   S
    N47    O51       1.32544      .   S
    Zr7    O51       2.38061  1_556   S
    N52    O53       2.32033      .   S
    Zr10   O53       3.29311      .   S
    N52    O54       1.32497      .   S
    Zr4    O54       2.38004  1_565   S
    N52    O55       2.35256      .   S
    Zr7    O55       3.31650      .   S
    N52    O56       1.78151      .   S
    Zr4    O56       2.07483  1_565   S
    N57    O58       2.34918      .   S
    Zr4    O58       3.31222      .   S
    N57    O59       2.32015      .   S
    Zr2    O59       3.29460      .   S
    N57    O60       1.32549      .   S
    Zr8    O60       2.38068      .   S
    N57    O61       1.78151      .   S
    Zr8    O61       2.07593      .   S
    N62    O63       0.59903      .   S
    Zr1    O63       1.79709      .   S
    N64    O65       0.59659      .   S
    Zr3    O65       1.78978      .   S
    N66    O67       2.32057      .   S
    Zr4    O67       3.29372      .   S
    N66    O68       1.78127      .   S
    Zr11   O68       2.07432  1_545   S
    N66    O69       1.32471      .   S
    Zr11   O69       2.37956  1_545   S
    N66    O70       2.35378      .   S
    Zr1    O70       3.32012      .   S
    N71    O72       0.59657      .   S
    Zr2    O72       1.78972      .   S
    N73    O74       2.35233      .   S
    Zr0    O74       3.31624      .   S
    N73    O75       1.32494      .   S
    Zr10   O75       2.37999  1_545   S
    N73    O76       2.32022      .   S
    Zr5    O76       3.29274  1_655   S
    N73    O77       1.78140      .   S
    Zr10   O77       2.07482  1_545   S
    N78    O79       0.59661      .   S
    Zr6    O79       1.78983      .   S
    N80    O81       0.59659      .   S
    Zr8    O81       1.78976      .   S
    N82    O83       0.59658      .   S
    Zr9    O83       1.78974      .   S
    N84    O85       0.59664      .   S
    Zr10   O85       1.78991      .   S
    N86    O87       0.59656      .   S
    Zr7    O87       1.78969      .   S
    N88    O89       0.59668      .   S
    Zr11   O89       1.79004      .   S
    N90    O91       0.59666      .   S
    Zr5    O91       1.78999      .   S
    N92    O93       0.59668      .   S
    Zr4    O93       1.79003      .   S
    N94    O95       0.59653      .   S
    Zr0    O95       1.78958      .   S
