# CIF file generated by openbabel 2.4.90, see http://openbabel.sf.net
data_I
_chemical_name_common ''
_cell_length_a 13.996
_cell_length_b 14.622
_cell_length_c 18.585
_cell_angle_alpha 69.124
_cell_angle_beta 67.88
_cell_angle_gamma 61.406
_space_group_name_H-M_alt 'P 1'
_space_group_name_Hall 'P 1'
loop_
    _symmetry_equiv_pos_as_xyz
    x,y,z
loop_
    _atom_site_label
    _atom_site_type_symbol
    _atom_site_fract_x
    _atom_site_fract_y
    _atom_site_fract_z
    _atom_site_occupancy
    H0      H    0.45993   0.60129   0.21039   1.000
    H1      H    0.56829   0.66202   0.25115   1.000
    H2      H    0.77164   0.54637   0.24735   1.000
    H3      H    0.88686   0.02228   0.19230   1.000
    H4      H    0.90500   0.04928   0.04793   1.000
    H5      H    0.81929   0.21851   0.00000   1.000
    H6      H    0.34319   0.35597   0.00000   1.000
    H7      H    0.45173   0.20278   0.93850   1.000
    H8      H    0.67650   0.07349   0.06821   1.000
    H9      H    0.56153   0.23259   0.12765   1.000
    H10     H    0.89995   0.85123   0.91698   1.000
    H11     H    0.79723   0.99692   0.98542   1.000
    H12     H    0.49485   0.02209   0.95257   1.000
    H13     H    0.61027   0.87555   0.88573   1.000
    H14     H    0.26909   0.89969   0.30652   1.000
    H15     H    0.47890   0.83988   0.26578   1.000
    H16     H    0.56182   0.95572   0.27048   1.000
    H17     H    0.10310   0.47169   0.32540   1.000
    H18     H    0.00422   0.44488   0.46990   1.000
    H19     H    0.03555   0.25834   0.55006   1.000
    H20     H    0.68928   0.12234   0.54506   1.000
    H21     H    0.57826   0.27573   0.61298   1.000
    H22     H    0.80931   0.42024   0.44846   1.000
    H23     H    0.91106   0.26112   0.38928   1.000
    H24     H    0.65639   0.63197   0.63316   1.000
    H25     H    0.76852   0.47843   0.56530   1.000
    H26     H    0.45599   0.45760   0.59859   1.000
    H27     H    0.35747   0.61167   0.66484   1.000
    H28     H    0.51083   0.38843   0.82358   1.000
    H29     H    0.40247   0.32769   0.78282   1.000
    H30     H    0.19912   0.44334   0.78662   1.000
    H31     H    0.08390   0.96743   0.84163   1.000
    H32     H    0.06576   0.94043   0.98604   1.000
    H33     H    0.15148   0.77119   0.03236   1.000
    H34     H    0.62757   0.63374   0.02742   1.000
    H35     H    0.51903   0.78695   0.09547   1.000
    H36     H    0.29426   0.91622   0.96576   1.000
    H37     H    0.40923   0.75711   0.90633   1.000
    H38     H    0.07081   0.13849   0.11699   1.000
    H39     H    0.17353   0.99280   0.04855   1.000
    H40     H    0.47591   0.96763   0.08100   1.000
    H41     H    0.36049   0.11417   0.14824   1.000
    H42     H    0.70167   0.09002   0.72745   1.000
    H43     H    0.49186   0.14983   0.76818   1.000
    H44     H    0.40894   0.03399   0.76348   1.000
    H45     H    0.86766   0.51802   0.70850   1.000
    H46     H    0.96655   0.54480   0.56409   1.000
    H47     H    0.93522   0.73135   0.48392   1.000
    H48     H    0.28147   0.86736   0.48891   1.000
    H49     H    0.39249   0.71398   0.42099   1.000
    H50     H    0.16146   0.56945   0.58553   1.000
    H51     H    0.05970   0.72857   0.64470   1.000
    H52     H    0.31436   0.35774   0.40082   1.000
    H53     H    0.20224   0.51127   0.46868   1.000
    H54     H    0.51476   0.53211   0.43538   1.000
    H55     H    0.61329   0.37805   0.36912   1.000
    C56     C    0.60047   0.45589   0.18622   1.000
    C57     C    0.54848   0.55334   0.20940   1.000
    C58     C    0.60902   0.58684   0.23182   1.000
    C59     C    0.72170   0.52297   0.23000   1.000
    C60     C    0.77647   0.42696   0.20382   1.000
    C61     C    0.71613   0.39179   0.18099   1.000
    C62     C    0.80711   0.18953   0.19155   1.000
    C63     C    0.85740   0.10230   0.15557   1.000
    C64     C    0.86735   0.11780   0.07510   1.000
    C65     C    0.82739   0.22115   0.03025   1.000
    C66     C    0.78041   0.30966   0.06437   1.000
    C67     C    0.76972   0.29506   0.14608   1.000
    C68     C    0.41590   0.28758   0.00000   1.000
    C69     C    0.47624   0.20116   0.98819   1.000
    C70     C    0.56883   0.11525   0.00000   1.000
    C71     C    0.60741   0.13809   0.04300   1.000
    C72     C    0.54348   0.22682   0.07760   1.000
    C73     C    0.80902   0.89314   0.92677   1.000
    C74     C    0.74841   0.97774   0.96520   1.000
    C75     C    0.63580   0.02319   0.97515   1.000
    C76     C    0.58095   0.99273   0.94599   1.000
    C77     C    0.64673   0.90693   0.90894   1.000
    C78     C    0.24349   0.03785   0.33131   1.000
    C79     C    0.30830   0.94783   0.30779   1.000
    C80     C    0.42470   0.91483   0.28540   1.000
    C81     C    0.47121   0.97883   0.28766   1.000
    C82     C    0.40761   0.06744   0.31414   1.000
    C83     C    0.28930   0.10221   0.33679   1.000
    C84     C    0.18878   0.30445   0.32611   1.000
    C85     C    0.11653   0.39171   0.36216   1.000
    C86     C    0.06163   0.37632   0.44265   1.000
    C87     C    0.07938   0.27304   0.48745   1.000
    C88     C    0.15439   0.18448   0.45327   1.000
    C89     C    0.21107   0.19896   0.37162   1.000
    C90     C    0.71249   0.19024   0.52682   1.000
    C91     C    0.65090   0.27677   0.56319   1.000
    C92     C    0.68435   0.36209   0.53718   1.000
    C93     C    0.77960   0.35611   0.47324   1.000
    C94     C    0.83740   0.26732   0.43937   1.000
    C95     C    0.61612   0.59081   0.62360   1.000
    C96     C    0.67735   0.50587   0.58553   1.000
    C97     C    0.62167   0.45429   0.57583   1.000
    C98     C    0.50433   0.49325   0.60494   1.000
    C99     C    0.44850   0.57929   0.64167   1.000
    C100    C    0.37029   0.53383   0.84775   1.000
    C101    C    0.42228   0.43638   0.82455   1.000
    C102    C    0.36174   0.40287   0.80215   1.000
    C103    C    0.24906   0.46674   0.80395   1.000
    C104    C    0.19429   0.56276   0.83015   1.000
    C105    C    0.25463   0.59793   0.85298   1.000
    C106    C    0.16365   0.80018   0.84242   1.000
    C107    C    0.11336   0.88741   0.87840   1.000
    C108    C    0.10341   0.87192   0.95886   1.000
    C109    C    0.14337   0.76856   0.00000   1.000
    C110    C    0.19035   0.68006   0.96960   1.000
    C111    C    0.20104   0.69466   0.88780   1.000
    C112    C    0.55485   0.70213   0.00930   1.000
    C113    C    0.49452   0.78856   0.04570   1.000
    C114    C    0.40192   0.87447   0.02001   1.000
    C115    C    0.36334   0.85163   0.99028   1.000
    C116    C    0.42727   0.76289   0.95629   1.000
    C117    C    0.16174   0.09658   0.10720   1.000
    C118    C    0.22235   0.01198   0.06877   1.000
    C119    C    0.33496   0.96653   0.05882   1.000
    C120    C    0.38981   0.99699   0.08798   1.000
    C121    C    0.32403   0.08279   0.12500   1.000
    C122    C    0.72728   0.95186   0.70265   1.000
    C123    C    0.66247   0.04188   0.72610   1.000
    C124    C    0.54606   0.07488   0.74857   1.000
    C125    C    0.49956   0.01088   0.74630   1.000
    C126    C    0.56315   0.92226   0.71982   1.000
    C127    C    0.68146   0.88750   0.69717   1.000
    C128    C    0.78198   0.68526   0.70786   1.000
    C129    C    0.85424   0.59799   0.67180   1.000
    C130    C    0.90914   0.61338   0.59133   1.000
    C131    C    0.89139   0.71665   0.54650   1.000
    C132    C    0.81639   0.80522   0.58070   1.000
    C133    C    0.75970   0.79074   0.66235   1.000
    C134    C    0.25826   0.79946   0.50715   1.000
    C135    C    0.31985   0.71293   0.47078   1.000
    C136    C    0.28641   0.62761   0.49679   1.000
    C137    C    0.19116   0.63358   0.56074   1.000
    C138    C    0.13336   0.72237   0.59461   1.000
    C139    C    0.35464   0.39890   0.41035   1.000
    C140    C    0.29341   0.48384   0.44845   1.000
    C141    C    0.34909   0.53541   0.45810   1.000
    C142    C    0.46642   0.49645   0.42903   1.000
    C143    C    0.52225   0.41042   0.39229   1.000
    N144    N    0.45536   0.30959   0.05147   1.000
    N145    N    0.75908   0.85813   0.89884   1.000
    N146    N    0.80502   0.18506   0.46584   1.000
    N147    N    0.50316   0.62712   0.65150   1.000
    N148    N    0.51540   0.68012   0.98251   1.000
    N149    N    0.21168   0.13159   0.13513   1.000
    N150    N    0.16573   0.80464   0.56814   1.000
    N151    N    0.46760   0.36259   0.38247   1.000
loop_
    _geom_bond_atom_site_label_1
    _geom_bond_atom_site_label_2
    _geom_bond_distance
    _geom_bond_site_symmetry_2
    _ccdc_geom_bond_type
    C70    C71       1.31503      .   S
    C70    C75       1.34656  1_554   S
    C70    C69       1.32856  1_554   S
    C68    H6        1.03031      .   S
    C68    N144      1.45287      .   S
    C68    C69       1.18106  1_554   S
    C109   H33       0.66945      .   S
    C109   C108      1.36778  1_554   S
    C109   C110      1.36128  1_554   S
    H5     C65       0.63095      .   S
    C112   H34       1.09226      .   S
    C112   C113      1.38759      .   S
    C112   N148      1.07136  1_554   S
    C114   C113      1.40202      .   S
    C114   C119      1.47854      .   S
    C114   C115      1.11224  1_554   S
    C65    C66       1.40198      .   S
    C65    C64       1.39131      .   S
    C71    H8        1.09460      .   S
    C71    C72       1.39553      .   S
    C113   H35       1.09064      .   S
    H4     C64       1.09143      .   S
    H39    C118      1.06709  1_565   S
    N144   C72       1.35104      .   S
    C119   C118      1.35110  1_565   S
    C119   C120      1.37625      .   S
    C66    C67       1.41508      .   S
    C118   C117      1.38883      .   S
    C64    C63       1.39256      .   S
    C72    H9        1.09061      .   S
    H40    C120      1.03931      .   S
    C120   C121      1.38829  1_565   S
    C117   H38       1.08948      .   S
    C117   N149      1.35098      .   S
    C121   N149      1.34753      .   S
    C121   H41       1.09034      .   S
    C67    C61       1.50203      .   S
    C67    C62       1.41406      .   S
    C63    C62       1.40124      .   S
    C63    H3        1.08903      .   S
    C61    C56       1.41507      .   S
    C61    C60       1.41379      .   S
    C56    C57       1.39795      .   S
    C60    C59       1.40397      .   S
    C57    H0        1.09012      .   S
    C57    C58       1.39286      .   S
    C59    C58       1.39034      .   S
    C59    H2        1.08944      .   S
    C58    H1        1.09085      .   S
    H15    C80       1.09089      .   S
    H16    C81       1.08916      .   S
    C80    C81       1.39029      .   S
    C80    C79       1.39292      .   S
    C81    C82       1.31683  1_565   S
    H14    C79       1.09015      .   S
    C79    C78       1.30959  1_565   S
    C82    C83       1.41397      .   S
    H17    C85       1.08933      .   S
    C84    C85       1.40121      .   S
    C84    C89       1.41426      .   S
    C78    C83       1.41511      .   S
    C83    C89       1.50181      .   S
    C85    C86       1.39238      .   S
    H55    C143      1.08979      .   S
    C89    C88       1.41496      .   S
    N151   C143      1.34754      .   S
    N151   C139      1.35115      .   S
    H23    C94       1.08885      .   S
    C143   C142      1.38875      .   S
    H52    C139      1.08956      .   S
    C139   C140      1.38897      .   S
    H49    C135      1.08921      .   S
    C142   H54       1.08859      .   S
    C142   C141      1.40323      .   S
    C94    N146      1.35151      .   S
    C94    C93       1.38914      .   S
    C86    H18       1.09162      .   S
    C86    C87       1.39135      .   S
    C140   C141      1.40441      .   S
    C140   H53       1.08934      .   S
    H22    C93       1.08875      .   S
    C88    C87       1.40193      .   S
    C141   C136      1.47917      .   S
    N146   C90       1.35249      .   S
    C135   C136      1.40279      .   S
    C135   C134      1.38839      .   S
    C93    C92       1.40229      .   S
    H47    C131      1.08901      .   S
    C87    H19       1.08944      .   S
    H48    C134      1.09187      .   S
    C136   C137      1.40235      .   S
    C134   N150      1.35255      .   S
    C90    H20       1.09187      .   S
    C90    C91       1.38840      .   S
    C92    C91       1.40279      .   S
    C92    C97       1.47876      .   S
    C131   C132      1.40218      .   S
    C131   C130      1.39148      .   S
    C137   H50       1.08875      .   S
    C137   C138      1.38914      .   S
    C91    H21       1.08924      .   S
    H46    C130      1.09157      .   S
    H25    C96       1.08935      .   S
    N150   C138      1.35151      .   S
    C97    C96       1.40486      .   S
    C97    C98       1.40332      .   S
    C132   C133      1.41496      .   S
    C96    C95       1.38869      .   S
    C130   C129      1.39209      .   S
    C138   H51       1.08881      .   S
    H26    C98       1.08858      .   S
    C98    C99       1.38868      .   S
    C95    H24       1.08988      .   S
    C95    N147      1.35119      .   S
    C99    N147      1.34764      .   S
    C99    H27       1.08979      .   S
    C133   C127      1.50176      .   S
    C133   C128      1.41422      .   S
    C129   C128      1.40138      .   S
    C129   H45       1.08895      .   S
    C127   C122      1.41511      .   S
    C127   C126      1.41397      .   S
    C122   C123      1.30904  1_565   S
    C126   C125      1.31684  1_565   S
    C123   H42       1.09079      .   S
    C123   C124      1.39290      .   S
    C125   C124      1.39036      .   S
    C125   H44       1.08917      .   S
    C124   H43       1.09080      .   S
    H29    C102      1.09086      .   S
    H30    C103      1.08923      .   S
    C102   C103      1.39040      .   S
    C102   C101      1.39268      .   S
    C103   C104      1.40420      .   S
    H28    C101      1.09017      .   S
    C101   C100      1.39813      .   S
    C104   C105      1.41379      .   S
    H31    C107      1.08932      .   S
    C106   C107      1.40122      .   S
    C106   C111      1.41349      .   S
    C100   C105      1.41507      .   S
    C105   C111      1.50107      .   S
    C107   C108      1.39238      .   S
    H13    C77       1.08993      .   S
    C111   C110      1.41672      .   S
    N145   C77       1.34760      .   S
    N145   C73       1.35097      .   S
    H37    C116      1.08901      .   S
    C77    C76       1.38862      .   S
    H10    C73       1.08948      .   S
    C73    C74       1.38884      .   S
    H7     C69       1.08919      .   S
    C76    H12       1.04056  1_565   S
    C76    C75       1.37624  1_565   S
    C116   N148      1.35168      .   S
    C116   C115      1.38935      .   S
    C108   H32       1.09153      .   S
    C74    C75       1.35111  1_565   S
    C74    H11       1.06709      .   S
    H36    C115      1.08885      .   S
