# CIF file generated by openbabel 2.4.90, see http://openbabel.sf.net
data_I
_chemical_name_common ''
_cell_length_a 13.996
_cell_length_b 14.622
_cell_length_c 18.585
_cell_angle_alpha 69.124
_cell_angle_beta 67.88
_cell_angle_gamma 61.406
_space_group_name_H-M_alt 'P 1'
_space_group_name_Hall 'P 1'
loop_
    _symmetry_equiv_pos_as_xyz
    x,y,z
loop_
    _atom_site_label
    _atom_site_type_symbol
    _atom_site_fract_x
    _atom_site_fract_y
    _atom_site_fract_z
    _atom_site_occupancy
    Zr0     Zr   0.36376   0.44094   0.10180   1.000
    Zr1     Zr   0.55117   0.24562   0.31401   1.000
    Zr2     Zr   0.89430   0.05356   0.41561   1.000
    Zr3     Zr   0.11082   0.24793   0.20410   1.000
    Zr4     Zr   0.60699   0.54877   0.93217   1.000
    Zr5     Zr   0.41958   0.74410   0.71990   1.000
    Zr6     Zr   0.07646   0.93614   0.61836   1.000
    Zr7     Zr   0.85993   0.74179   0.82982   1.000
    N8      N    0.86470   0.66704   0.61301   1.000
    N9      N    0.58694   0.01812   0.73330   1.000
    O10     O    0.68979   0.88560   0.68984   1.000
    N11     N    0.65336   0.40737   0.55732   1.000
    O12     O    0.55736   0.54649   0.62151   1.000
    O13     O    0.75151   0.26334   0.49902   1.000
    N14     N    0.83561   0.16951   0.10035   1.000
    N15     N    0.64135   0.52750   0.21679   1.000
    O16     O    0.71531   0.39198   0.17437   1.000
    N17     N    0.31740   0.58234   0.47665   1.000
    O18     O    0.21925   0.72636   0.53495   1.000
    O19     O    0.41339   0.44322   0.41245   1.000
    N20     N    0.38383   0.97159   0.30065   1.000
    N21     N    0.10607   0.32265   0.42096   1.000
    O22     O    0.21154   0.19187   0.37419   1.000
    N23     N    0.60412   0.07705   0.98281   1.000
    O24     O    0.70681   0.93850   0.92357   1.000
    O25     O    0.50684   0.22616   0.02972   1.000
    N26     N    0.36663   0.91267   0.04884   1.000
    O27     O    0.46391   0.76356   0.00309   1.000
    O28     O    0.26394   0.05122   0.10923   1.000
    N29     N    0.32941   0.46222   0.81717   1.000
    N30     N    0.13515   0.82020   0.93301   1.000
    O31     O    0.20688   0.68723   0.88840   1.000
    C32     C    0.71887   0.65083   0.81930   1.000
    O33     O    0.68394   0.60989   0.84760   1.000
    O34     O    0.75782   0.68695   0.82775   1.000
    O35     O    0.76485   0.66021   0.75085   1.000
    C36     C    0.72873   0.44029   0.00725   1.000
    O37     O    0.76374   0.35366   0.03810   1.000
    O38     O    0.68756   0.45948   0.98474   1.000
    C39     C    0.48583   0.84679   0.71477   1.000
    O40     O    0.52288   0.90116   0.72014   1.000
    C41     C    0.88550   0.90812   0.68007   1.000
    O42     O    0.78688   0.94223   0.69677   1.000
    O43     O    0.88507   0.84596   0.72777   1.000
    O44     O    0.93570   0.93342   0.65325   1.000
    C45     C    0.46192   0.57803   0.87006   1.000
    O46     O    0.44697   0.64011   0.82223   1.000
    O47     O    0.41485   0.54241   0.85348   1.000
    O48     O    0.50754   0.55245   0.89701   1.000
    C49     C    0.17691   0.83470   0.73109   1.000
    O50     O    0.16454   0.82573   0.79843   1.000
    O51     O    0.26044   0.79869   0.72241   1.000
    O52     O    0.12948   0.87547   0.70289   1.000
    C53     C    0.17315   0.04811   0.52151   1.000
    O54     O    0.15392   0.13712   0.48600   1.000
    O55     O    0.12579   0.02533   0.55500   1.000
    C56     C    0.03670   0.63815   0.83449   1.000
    O57     O    0.98568   0.67778   0.84347   1.000
    O58     O    0.13388   0.58264   0.82952   1.000
    C59     C    0.93406   0.35157   0.19948   1.000
    O60     O    0.98508   0.31194   0.19048   1.000
    O61     O    0.83688   0.40707   0.20444   1.000
    C62     C    0.08526   0.08159   0.35385   1.000
    O63     O    0.18389   0.04748   0.33717   1.000
    O64     O    0.08570   0.14376   0.30615   1.000
    O65     O    0.03506   0.05629   0.38068   1.000
    C66     C    0.79763   0.94158   0.51245   1.000
    O67     O    0.84498   0.96436   0.47896   1.000
    O68     O    0.81685   0.85257   0.54796   1.000
    C69     C    0.79384   0.15502   0.30289   1.000
    O70     O    0.80621   0.16398   0.23539   1.000
    O71     O    0.71031   0.19103   0.31155   1.000
    O72     O    0.84127   0.11424   0.33109   1.000
    C73     C    0.50883   0.41169   0.16387   1.000
    O74     O    0.46322   0.43727   0.13693   1.000
    O75     O    0.55591   0.44731   0.18046   1.000
    O76     O    0.52379   0.34961   0.21169   1.000
    C77     C    0.24203   0.54942   0.01389   1.000
    O78     O    0.20701   0.63605   0.98640   1.000
    O79     O    0.28320   0.53023   0.04281   1.000
    C80     C    0.48493   0.14292   0.31917   1.000
    O81     O    0.44788   0.08855   0.31380   1.000
    C82     C    0.25189   0.33889   0.21464   1.000
    O83     O    0.20591   0.32950   0.28310   1.000
    O84     O    0.28681   0.37983   0.18636   1.000
    O85     O    0.21294   0.30277   0.20619   1.000
    O86     O    0.46715   0.81902   0.71595   1.000
    O87     O    0.50361   0.17069   0.31799   1.000
loop_
    _geom_bond_atom_site_label_1
    _geom_bond_atom_site_label_2
    _geom_bond_distance
    _geom_bond_site_symmetry_2
    _ccdc_geom_bond_type
    N9     O10       2.01224  1_545   S
    N8     O10       3.37285      .   S
    N11    O12       2.29628      .   S
    Zr5    O12       3.34488      .   S
    N11    O13       2.28740      .   S
    Zr2    O13       3.31569      .   S
    N15    O16       2.03839      .   S
    N14    O16       3.39284      .   S
    N17    O18       2.28740      .   S
    Zr6    O18       3.31564      .   S
    N17    O19       2.29638      .   S
    Zr1    O19       3.34531      .   S
    N21    O22       2.02671      .   S
    N20    O22       3.35832  1_565   S
    N23    O24       2.23441  1_545   S
    Zr7    O24       3.28041      .   S
    N23    O25       2.23312  1_556   S
    Zr0    O25       3.25974      .   S
    N26    O27       2.22223      .   S
    Zr4    O27       3.24857  1_556   S
    N26    O28       2.24674  1_565   S
    Zr3    O28       3.29298      .   S
    N30    O31       2.03213      .   S
    N29    O31       3.39287      .   S
    C32    O33       0.85792      .   S
    Zr4    O33       1.75342      .   S
    C32    O34       0.99993      .   S
    Zr7    O34       1.96151      .   S
    C32    O35       1.18116      .   S
    N8     O35       2.40431      .   S
    C36    O37       1.12840      .   S
    N14    O37       2.38002      .   S
    C36    O38       0.72715  1_554   S
    Zr4    O38       1.56279      .   S
    C39    O40       1.18360      .   S
    N9     O40       2.39154  1_545   S
    C41    O42       1.17438      .   S
    N9     O42       2.37842  1_545   S
    C41    O43       1.01928      .   S
    Zr7    O43       1.99813      .   S
    C41    O44       0.85586      .   S
    Zr6    O44       1.84336  1_455   S
    C45    O46       1.02032      .   S
    Zr5    O46       2.00155      .   S
    C45    O47       1.18156      .   S
    N29    O47       2.40289      .   S
    C45    O48       0.82290      .   S
    Zr4    O48       1.71914      .   S
    C49    O50       1.16421      .   S
    N30    O50       2.35464      .   S
    C49    O51       0.99960      .   S
    Zr5    O51       1.96131      .   S
    C49    O52       0.85515      .   S
    Zr6    O52       1.74928      .   S
    C53    O54       1.17825      .   S
    N21    O54       2.40886      .   S
    C53    O55       0.83094      .   S
    Zr6    O55       1.64910  1_565   S
    C56    O57       0.67571  1_455   S
    Zr7    O57       1.62122      .   S
    C56    O58       1.19146      .   S
    N29    O58       2.41759      .   S
    C59    O60       0.67571      .   S
    Zr3    O60       1.62097  1_455   S
    C59    O61       1.19146      .   S
    N15    O61       2.41760      .   S
    C62    O63       1.17438      .   S
    N20    O63       2.37840  1_565   S
    C62    O64       1.01933      .   S
    Zr3    O64       1.99812      .   S
    C62    O65       0.85595      .   S
    Zr2    O65       1.84339  1_655   S
    C66    O67       0.83088      .   S
    Zr2    O67       1.64901  1_545   S
    C66    O68       1.17826      .   S
    N8     O68       2.40884      .   S
    C69    O70       1.16700      .   S
    N14    O70       2.36300      .   S
    C69    O71       0.99964      .   S
    Zr1    O71       1.96154      .   S
    C69    O72       0.85520      .   S
    Zr2    O72       1.74928      .   S
    C73    O74       0.82264      .   S
    Zr0    O74       1.71896      .   S
    C73    O75       1.18170      .   S
    N15    O75       2.40319      .   S
    C73    O76       1.02022      .   S
    Zr1    O76       2.00142      .   S
    C77    O78       1.11307  1_554   S
    N30    O78       2.34557      .   S
    C77    O79       0.81890      .   S
    Zr0    O79       1.63699      .   S
    C80    O81       1.18361      .   S
    N20    O81       2.39144  1_565   S
    C82    O83       1.18115      .   S
    N21    O83       2.40453      .   S
    C82    O84       0.85784      .   S
    Zr0    O84       1.75328      .   S
    C82    O85       0.99990      .   S
    Zr3    O85       1.96168      .   S
    C39    O86       0.56977      .   S
    Zr5    O86       1.50098      .   S
    Zr1    O87       1.50075      .   S
    C80    O87       0.56974      .   S
