# CIF file generated by openbabel 2.4.90, see http://openbabel.sf.net
data_I
_chemical_name_common ''
_cell_length_a 13.996
_cell_length_b 14.622
_cell_length_c 18.585
_cell_angle_alpha 69.124
_cell_angle_beta 67.88
_cell_angle_gamma 61.406
_space_group_name_H-M_alt 'P 1'
_space_group_name_Hall 'P 1'
loop_
    _symmetry_equiv_pos_as_xyz
    x,y,z
loop_
    _atom_site_label
    _atom_site_type_symbol
    _atom_site_fract_x
    _atom_site_fract_y
    _atom_site_fract_z
    _atom_site_occupancy
    Zr0     Zr   0.36376   0.44094   0.10180   1.000
    Zr1     Zr   0.55117   0.24562   0.31401   1.000
    Zr2     Zr   0.89430   0.05356   0.41561   1.000
    Zr3     Zr   0.11082   0.24793   0.20410   1.000
    Zr4     Zr   0.60699   0.54877   0.93217   1.000
    Zr5     Zr   0.41958   0.74410   0.71990   1.000
    Zr6     Zr   0.07646   0.93614   0.61836   1.000
    Zr7     Zr   0.85993   0.74179   0.82982   1.000
    Zr8     Zr   0.52875   0.42083   0.16840   1.000
    Zr9     Zr   0.89959   0.36837   0.20023   1.000
    Zr10    Zr   0.79601   0.16323   0.27929   1.000
    Zr11    Zr   0.74340   0.41944   0.01071   1.000
    Zr12    Zr   0.11891   0.07246   0.34932   1.000
    Zr13    Zr   0.46804   0.12612   0.31830   1.000
    Zr14    Zr   0.23879   0.33069   0.23820   1.000
    Zr15    Zr   0.17224   0.07475   0.50676   1.000
    Zr16    Zr   0.44200   0.56888   0.86550   1.000
    Zr17    Zr   0.07117   0.62134   0.83374   1.000
    Zr18    Zr   0.17474   0.82648   0.75468   1.000
    Zr19    Zr   0.22736   0.57027   0.00000   1.000
    Zr20    Zr   0.85185   0.91725   0.68460   1.000
    Zr21    Zr   0.50272   0.86359   0.71560   1.000
    Zr22    Zr   0.73197   0.65902   0.79569   1.000
    Zr23    Zr   0.79853   0.91494   0.52720   1.000
    Zr24    Zr   0.47144   0.48478   0.11820   1.000
    Zr25    Zr   0.52631   0.32945   0.20500   1.000
    Zr26    Zr   0.70240   0.20847   0.32640   1.000
    Zr27    Zr   0.88311   0.09337   0.30297   1.000
    Zr28    Zr   0.94125   0.38963   0.23934   1.000
    Zr29    Zr   0.96135   0.29669   0.15886   1.000
    Zr30    Zr   0.75698   0.49287   0.01873   1.000
    Zr31    Zr   0.68580   0.40857   0.99231   1.000
    Zr32    Zr   0.07543   0.00842   0.39942   1.000
    Zr33    Zr   0.06145   0.16390   0.31280   1.000
    Zr34    Zr   0.23717   0.28537   0.19138   1.000
    Zr35    Zr   0.27970   0.40059   0.21435   1.000
    Zr36    Zr   0.57039   0.10468   0.27970   1.000
    Zr37    Zr   0.41637   0.19796   0.35950   1.000
    Zr38    Zr   0.26679   0.00059   0.49914   1.000
    Zr39    Zr   0.08041   0.06898   0.55862   1.000
    Zr40    Zr   0.49932   0.50495   0.91577   1.000
    Zr41    Zr   0.44445   0.66027   0.82891   1.000
    Zr42    Zr   0.26835   0.78126   0.70757   1.000
    Zr43    Zr   0.08764   0.89635   0.73101   1.000
    Zr44    Zr   0.02951   0.60008   0.79463   1.000
    Zr45    Zr   0.00941   0.69302   0.87510   1.000
    Zr46    Zr   0.21378   0.49684   0.00000   1.000
    Zr47    Zr   0.28496   0.58114   0.04166   1.000
    Zr48    Zr   0.89533   0.98129   0.63450   1.000
    Zr49    Zr   0.90932   0.82581   0.72111   1.000
    Zr50    Zr   0.73359   0.70434   0.84259   1.000
    Zr51    Zr   0.69105   0.58913   0.81963   1.000
    Zr52    Zr   0.40037   0.88503   0.75427   1.000
    Zr53    Zr   0.55439   0.79176   0.67445   1.000
    Zr54    Zr   0.70399   0.98910   0.53480   1.000
    Zr55    Zr   0.89036   0.92070   0.47534   1.000
    O56     O    0.22057   0.53356   0.00000   1.000
    O57     O    0.25616   0.57571   0.02083   1.000
    O58     O    0.75019   0.45616   0.01472   1.000
    O59     O    0.71460   0.41400   0.00151   1.000
    O60     O    0.32436   0.51104   0.07173   1.000
    O61     O    0.41760   0.46286   0.11000   1.000
    O62     O    0.32173   0.42077   0.15807   1.000
    O63     O    0.50009   0.45280   0.14330   1.000
    O64     O    0.93047   0.33253   0.17954   1.000
    O65     O    0.03609   0.27231   0.18148   1.000
    O66     O    0.52753   0.37514   0.18670   1.000
    O67     O    0.17400   0.26665   0.19774   1.000
    O68     O    0.23798   0.30803   0.21479   1.000
    O69     O    0.92042   0.37900   0.21979   1.000
    O70     O    0.08614   0.20592   0.25845   1.000
    O71     O    0.53874   0.28753   0.25950   1.000
    O72     O    0.25925   0.36564   0.22628   1.000
    O73     O    0.83956   0.12830   0.29113   1.000
    O74     O    0.74920   0.18585   0.30284   1.000
    O75     O    0.56078   0.17515   0.29686   1.000
    O76     O    0.51922   0.11540   0.29900   1.000
    O77     O    0.88870   0.07346   0.35929   1.000
    O78     O    0.09018   0.11818   0.33106   1.000
    O79     O    0.62679   0.22704   0.32021   1.000
    O80     O    0.48377   0.22179   0.33675   1.000
    O81     O    0.44220   0.16204   0.33890   1.000
    O82     O    0.09717   0.04044   0.37437   1.000
    O83     O    0.98487   0.03099   0.40751   1.000
    O84     O    0.89233   0.98713   0.44547   1.000
    O85     O    0.84445   0.91782   0.50127   1.000
    O86     O    0.21952   0.03767   0.50295   1.000
    O87     O    0.12633   0.07187   0.53269   1.000
    O88     O    0.75126   0.95202   0.53100   1.000
    O89     O    0.07844   0.00256   0.58849   1.000
    O90     O    0.98590   0.95871   0.62643   1.000
    O91     O    0.08205   0.91624   0.67469   1.000
    O92     O    0.87359   0.94927   0.65955   1.000
    O93     O    0.52856   0.82767   0.69503   1.000
    O94     O    0.48698   0.76793   0.69717   1.000
    O95     O    0.88059   0.87153   0.70286   1.000
    O96     O    0.34396   0.76268   0.71374   1.000
    O97     O    0.22155   0.80387   0.73112   1.000
    O98     O    0.45155   0.87431   0.73494   1.000
    O99     O    0.40997   0.81457   0.73708   1.000
    O100    O    0.43201   0.70219   0.77440   1.000
    O101    O    0.88463   0.78380   0.77546   1.000
    O102    O    0.13119   0.86142   0.74284   1.000
    O103    O    0.05034   0.61071   0.81418   1.000
    O104    O    0.71151   0.62408   0.80766   1.000
    O105    O    0.73278   0.68168   0.81914   1.000
    O106    O    0.64902   0.56895   0.87590   1.000
    O107    O    0.44323   0.61458   0.84720   1.000
    O108    O    0.79676   0.72307   0.83620   1.000
    O109    O    0.93467   0.71741   0.85246   1.000
    O110    O    0.04029   0.65718   0.85442   1.000
    O111    O    0.47066   0.53692   0.89063   1.000
    O112    O    0.55315   0.52686   0.92397   1.000
    O113    O    0.64639   0.47867   0.96224   1.000
    N114    N    0.86470   0.66704   0.61301   1.000
    O115    O    0.81083   0.66959   0.68239   1.000
    O116    O    0.83608   0.76356   0.58348   1.000
    N117    N    0.58694   0.01812   0.73330   1.000
    O118    O    0.68979   0.88560   0.68984   1.000
    O119    O    0.55994   0.95552   0.72551   1.000
    O120    O    0.68825   0.97634   0.71346   1.000
    N121    N    0.65336   0.40737   0.55732   1.000
    O122    O    0.55736   0.54649   0.62151   1.000
    O123    O    0.75151   0.26334   0.49902   1.000
    N124    N    0.83561   0.16951   0.10035   1.000
    O125    O    0.79876   0.26703   0.06894   1.000
    O126    O    0.81859   0.17295   0.16788   1.000
    N127    N    0.64135   0.52750   0.21679   1.000
    O128    O    0.71531   0.39198   0.17437   1.000
    O129    O    0.60298   0.48293   0.19705   1.000
    O130    O    0.73969   0.46258   0.20941   1.000
    N131    N    0.31740   0.58234   0.47665   1.000
    O132    O    0.21925   0.72636   0.53495   1.000
    O133    O    0.41339   0.44322   0.41245   1.000
    N134    N    0.38383   0.97159   0.30065   1.000
    O135    O    0.28251   0.01337   0.32048   1.000
    O136    O    0.41083   0.03418   0.30844   1.000
    N137    N    0.10607   0.32265   0.42096   1.000
    O138    O    0.21154   0.19187   0.37419   1.000
    O139    O    0.13469   0.22613   0.45049   1.000
    O140    O    0.15993   0.32011   0.35156   1.000
    N141    N    0.60412   0.07705   0.98281   1.000
    O142    O    0.70681   0.93850   0.92357   1.000
    O143    O    0.50684   0.22616   0.02972   1.000
    N144    N    0.36663   0.91267   0.04884   1.000
    O145    O    0.46391   0.76356   0.00309   1.000
    O146    O    0.26394   0.05122   0.10923   1.000
    N147    N    0.32941   0.46222   0.81717   1.000
    O148    O    0.23107   0.52713   0.82456   1.000
    O149    O    0.36778   0.50679   0.83690   1.000
    N150    N    0.13515   0.82020   0.93301   1.000
    O151    O    0.20688   0.68723   0.88840   1.000
    O152    O    0.15217   0.81677   0.86578   1.000
    O153    O    0.17200   0.72268   0.95891   1.000
loop_
    _geom_bond_atom_site_label_1
    _geom_bond_atom_site_label_2
    _geom_bond_distance
    _geom_bond_site_symmetry_2
    _ccdc_geom_bond_type
    Zr46   O56       0.58828      .   S
    Zr19   O56       0.58828      .   S
    Zr19   O57       0.69915      .   S
    Zr47   O57       0.69915      .   S
    Zr11   O58       0.62088      .   S
    Zr30   O58       0.62088      .   S
    Zr11   O59       0.53883      .   S
    Zr31   O59       0.53883  1_556   S
    Zr47   O60       0.97461      .   S
    Zr0    O60       0.97461      .   S
    Zr0    O61       1.02280      .   S
    Zr24   O61       1.02280      .   S
    Zr0    O62       1.00489      .   S
    Zr35   O62       1.00489      .   S
    Zr24   O63       0.63485      .   S
    Zr8    O63       0.63485      .   S
    Zr29   O64       0.64097      .   S
    Zr9    O64       0.64097      .   S
    Zr29   O65       1.12490  1_655   S
    Zr3    O65       1.12490      .   S
    Zr8    O66       0.63794      .   S
    Zr25   O66       0.63794      .   S
    Zr34   O67       1.00027      .   S
    Zr3    O67       1.00027      .   S
    Zr34   O68       0.63973      .   S
    Zr14   O68       0.63973      .   S
    Zr9    O69       0.63616      .   S
    Zr28   O69       0.63616      .   S
    Zr3    O70       1.00756      .   S
    Zr33   O70       1.00756      .   S
    Zr25   O71       1.01005      .   S
    Zr1    O71       1.01005      .   S
    Zr35   O72       0.63544      .   S
    Zr14   O72       0.63544      .   S
    Zr10   O73       0.63538      .   S
    Zr27   O73       0.63538      .   S
    Zr10   O74       0.64030      .   S
    Zr26   O74       0.64030      .   S
    Zr36   O75       1.11832      .   S
    Zr1    O75       1.11832      .   S
    Zr36   O76       0.63670      .   S
    Zr13   O76       0.63670      .   S
    Zr27   O77       1.00462      .   S
    Zr2    O77       1.00462      .   S
    Zr33   O78       0.63843      .   S
    Zr12   O78       0.63843      .   S
    Zr1    O79       1.00066      .   S
    Zr26   O79       1.00066      .   S
    Zr1    O80       1.04851      .   S
    Zr37   O80       1.04851      .   S
    Zr13   O81       0.64064      .   S
    Zr37   O81       0.64064      .   S
    Zr12   O82       0.63472      .   S
    Zr32   O82       0.63472      .   S
    Zr32   O83       1.10887  1_455   S
    Zr2    O83       1.10887      .   S
    Zr2    O84       0.93922  1_545   S
    Zr55   O84       0.93922      .   S
    Zr55   O85       0.65208      .   S
    Zr23   O85       0.65208      .   S
    Zr38   O86       0.62085      .   S
    Zr15   O86       0.62085      .   S
    Zr15   O87       0.65207      .   S
    Zr39   O87       0.65207      .   S
    Zr23   O88       0.62085      .   S
    Zr54   O88       0.62085      .   S
    Zr39   O89       0.93923      .   S
    Zr6    O89       0.93923  1_565   S
    Zr6    O90       1.10894  1_455   S
    Zr48   O90       1.10894      .   S
    Zr6    O91       1.00470      .   S
    Zr43   O91       1.00470      .   S
    Zr48   O92       0.63470      .   S
    Zr20   O92       0.63470      .   S
    Zr53   O93       0.64030      .   S
    Zr21   O93       0.64030      .   S
    Zr53   O94       1.04858      .   S
    Zr5    O94       1.04858      .   S
    Zr20   O95       0.63836      .   S
    Zr49   O95       0.63836      .   S
    Zr42   O96       1.00043      .   S
    Zr5    O96       1.00043      .   S
    Zr42   O97       0.64028      .   S
    Zr18   O97       0.64028      .   S
    Zr21   O98       0.63683      .   S
    Zr52   O98       0.63683      .   S
    Zr5    O99       1.11860      .   S
    Zr52   O99       1.11860      .   S
    Zr5    O100      1.01007      .   S
    Zr41   O100      1.01007      .   S
    Zr49   O101      1.00763      .   S
    Zr7    O101      1.00763      .   S
    Zr43   O102      0.63536      .   S
    Zr18   O102      0.63536      .   S
    Zr44   O103      0.63614      .   S
    Zr17   O103      0.63614      .   S
    Zr22   O104      0.63535      .   S
    Zr51   O104      0.63535      .   S
    Zr22   O105      0.64040      .   S
    Zr50   O105      0.64040      .   S
    Zr51   O106      1.00483      .   S
    Zr4    O106      1.00483      .   S
    Zr41   O107      0.63793      .   S
    Zr16   O107      0.63793      .   S
    Zr7    O108      1.00012      .   S
    Zr50   O108      1.00012      .   S
    Zr7    O109      1.12512      .   S
    Zr45   O109      1.12512  1_455   S
    Zr17   O110      0.64092      .   S
    Zr45   O110      0.64092      .   S
    Zr16   O111      0.63529      .   S
    Zr40   O111      0.63529      .   S
    Zr40   O112      1.02273      .   S
    Zr4    O112      1.02273      .   S
    Zr4    O113      0.97463      .   S
    Zr31   O113      0.97463      .   S
    N114   O115      1.22793      .   S
    Zr22   O115      1.96396      .   S
    N114   O116      1.23522      .   S
    Zr23   O116      1.97991      .   S
    N117   O118      2.01224  1_545   S
    N114   O118      3.37285      .   S
    N117   O119      1.21179  1_545   S
    Zr21   O119      1.94938      .   S
    N117   O120      1.20726  1_545   S
    Zr20   O120      1.94650      .   S
    N121   O122      2.29628      .   S
    Zr5    O122      3.34488      .   S
    N121   O123      2.28740      .   S
    Zr2    O123      3.31569      .   S
    N124   O125      1.25282      .   S
    Zr11   O125      1.99949      .   S
    N124   O126      1.20122      .   S
    Zr10   O126      1.93585      .   S
    N127   O128      2.03839      .   S
    N124   O128      3.39284      .   S
    N127   O129      1.22530      .   S
    Zr8    O129      1.96246      .   S
    N127   O130      1.23056      .   S
    Zr9    O130      1.96576      .   S
    N131   O132      2.28740      .   S
    Zr6    O132      3.31564      .   S
    N131   O133      2.29638      .   S
    Zr1    O133      3.34531      .   S
    N134   O135      1.20725  1_565   S
    Zr12   O135      1.94650      .   S
    N134   O136      1.21168  1_565   S
    Zr13   O136      1.94901      .   S
    N137   O138      2.02671      .   S
    N134   O138      3.35832  1_565   S
    N137   O139      1.23524      .   S
    Zr15   O139      1.97993      .   S
    N137   O140      1.22816      .   S
    Zr14   O140      1.96481      .   S
    N141   O142      2.23441  1_545   S
    Zr7    O142      3.28041      .   S
    N141   O143      2.23312  1_556   S
    Zr0    O143      3.25974      .   S
    N144   O145      2.22223      .   S
    Zr4    O145      3.24857  1_556   S
    N144   O146      2.24674  1_565   S
    Zr3    O146      3.29298      .   S
    N147   O148      1.23056      .   S
    Zr17   O148      1.96575      .   S
    N147   O149      1.22514      .   S
    Zr16   O149      1.96188      .   S
    N150   O151      2.03213      .   S
    N147   O151      3.39287      .   S
    N150   O152      1.19566      .   S
    Zr18   O152      1.93032      .   S
    N150   O153      1.23483      .   S
    Zr19   O153      1.93132  1_554   S
