# CIF file generated by openbabel 2.4.90, see http://openbabel.sf.net
data_I
_chemical_name_common ''
_cell_length_a 12.416
_cell_length_b 15.662
_cell_length_c 15.483
_cell_angle_alpha 89.974
_cell_angle_beta 89.987
_cell_angle_gamma 90.033
_space_group_name_H-M_alt 'P 1'
_space_group_name_Hall 'P 1'
loop_
    _symmetry_equiv_pos_as_xyz
    x,y,z
loop_
    _atom_site_label
    _atom_site_type_symbol
    _atom_site_fract_x
    _atom_site_fract_y
    _atom_site_fract_z
    _atom_site_occupancy
    Cu0     Cu   0.49998   0.49997   0.50000   1.000
    Cu1     Cu   0.15690   0.99997   0.18490   1.000
    Cu2     Cu   0.84311   1.00000   0.81508   1.000
    Cu3     Cu   0.34311   0.50005   0.68492   1.000
    Cu4     Cu   0.65687   0.49993   0.31509   1.000
    H5      H    0.77271   0.72130   0.08850   1.000
    H6      H    0.66753   0.59820   0.14826   1.000
    H7      H    0.84284   0.59839   0.37566   1.000
    H8      H    0.95760   0.72150   0.32440   1.000
    H9      H    0.22733   0.72148   0.91171   1.000
    H10     H    0.33217   0.59835   0.85208   1.000
    H11     H    0.15693   0.59871   0.62466   1.000
    H12     H    0.04251   0.72184   0.67577   1.000
    H13     H    0.72746   0.77861   0.58831   1.000
    H14     H    0.83253   0.90168   0.64800   1.000
    H15     H    0.65708   0.90135   0.87539   1.000
    H16     H    0.54242   0.77826   0.82422   1.000
    H17     H    0.27271   0.77851   0.41160   1.000
    H18     H    0.16774   0.90166   0.35200   1.000
    H19     H    0.34288   0.90149   0.12444   1.000
    H20     H    0.45740   0.77833   0.17555   1.000
    H21     H    0.22727   0.27881   0.91150   1.000
    H22     H    0.33251   0.40183   0.85173   1.000
    H23     H    0.15722   0.40160   0.62433   1.000
    H24     H    0.04240   0.27854   0.67564   1.000
    H25     H    0.77256   0.27855   0.08832   1.000
    H26     H    0.66768   0.40163   0.14801   1.000
    H27     H    0.84303   0.40131   0.37537   1.000
    H28     H    0.95751   0.27823   0.32421   1.000
    H29     H    0.27244   0.22120   0.41166   1.000
    H30     H    0.16739   0.09819   0.35181   1.000
    H31     H    0.34304   0.09864   0.12453   1.000
    Cu32    Cu   0.99998   0.00002   0.00000   1.000
    H33     H    0.45769   0.22167   0.17585   1.000
    H34     H    0.72733   0.22130   0.58842   1.000
    H35     H    0.83225   0.09821   0.64817   1.000
    H36     H    0.65700   0.09852   0.87565   1.000
    H37     H    0.54251   0.22164   0.82441   1.000
    C38     C    0.93340   0.80532   0.17129   1.000
    C39     C    0.87367   0.73130   0.20212   1.000
    C40     C    0.79133   0.69503   0.15188   1.000
    C41     C    0.73346   0.62663   0.18468   1.000
    C42     C    0.83257   0.62710   0.31193   1.000
    C43     C    0.89427   0.69544   0.28354   1.000
    C44     C    0.06672   0.80560   0.82900   1.000
    C45     C    0.12650   0.73170   0.79805   1.000
    C46     C    0.20864   0.69526   0.84830   1.000
    C47     C    0.26643   0.62689   0.81556   1.000
    C48     C    0.16740   0.62743   0.68830   1.000
    C49     C    0.10574   0.69575   0.71670   1.000
    C50     C    0.56676   0.69442   0.67105   1.000
    C51     C    0.62641   0.76847   0.70191   1.000
    C52     C    0.70878   0.80481   0.65169   1.000
    C53     C    0.76663   0.87320   0.68447   1.000
    C54     C    0.66745   0.87265   0.81160   1.000
    C55     C    0.60575   0.80432   0.78331   1.000
    C56     C    0.43321   0.69448   0.32867   1.000
    C57     C    0.37354   0.76848   0.29788   1.000
    C58     C    0.29132   0.80478   0.34820   1.000
    C59     C    0.23355   0.87320   0.31548   1.000
    C60     C    0.33254   0.87276   0.18816   1.000
    C61     C    0.39414   0.80439   0.21647   1.000
    C62     C    0.06662   0.19470   0.82871   1.000
    C63     C    0.12635   0.26873   0.79791   1.000
    C64     C    0.20863   0.30506   0.84817   1.000
    C65     C    0.26657   0.37340   0.81532   1.000
    C66     C    0.16747   0.37291   0.68807   1.000
    C67     C    0.10571   0.30463   0.71651   1.000
    C68     C    0.93320   0.19440   0.17104   1.000
    C69     C    0.87345   0.26833   0.20196   1.000
    C70     C    0.79128   0.30476   0.15168   1.000
    C71     C    0.73348   0.37312   0.18449   1.000
    C72     C    0.83257   0.37259   0.31168   1.000
    C73     C    0.89424   0.30429   0.28329   1.000
    C74     C    0.43329   0.30541   0.32903   1.000
    C75     C    0.37350   0.23148   0.29807   1.000
    C76     C    0.29122   0.19501   0.34830   1.000
    C77     C    0.23331   0.12672   0.31540   1.000
    C78     C    0.33258   0.12732   0.18823   1.000
    C79     C    0.39435   0.19556   0.21670   1.000
    C80     C    0.56685   0.30547   0.67133   1.000
    C81     C    0.62645   0.23143   0.70211   1.000
    C82     C    0.70870   0.19511   0.65184   1.000
    C83     C    0.76642   0.12669   0.68463   1.000
    C84     C    0.66738   0.12721   0.81191   1.000
    C85     C    0.60581   0.19557   0.78355   1.000
    N86     N    0.98355   0.90814   0.09274   1.000
    N87     N    0.04018   0.91018   0.16671   1.000
    N88     N    0.01031   0.84612   0.21756   1.000
    N89     N    0.91586   0.84281   0.09386   1.000
    N90     N    0.75293   0.59313   0.26352   1.000
    N91     N    0.01666   0.90836   0.90754   1.000
    N92     N    0.95977   0.91025   0.83368   1.000
    N93     N    0.98974   0.84635   0.78279   1.000
    N94     N    0.08442   0.84311   0.90638   1.000
    N95     N    0.24692   0.59335   0.73678   1.000
    N96     N    0.51663   0.59168   0.59249   1.000
    N97     N    0.45971   0.58972   0.66636   1.000
    N98     N    0.48968   0.65364   0.71726   1.000
    N99     N    0.58425   0.65706   0.59357   1.000
    N100    N    0.74710   0.90669   0.76327   1.000
    N101    N    0.48336   0.59172   0.40721   1.000
    N102    N    0.53999   0.58971   0.33320   1.000
    N103    N    0.51002   0.65368   0.28232   1.000
    N104    N    0.41578   0.65706   0.40616   1.000
    N105    N    0.25300   0.90675   0.23664   1.000
    N106    N    0.01651   0.09183   0.90717   1.000
    N107    N    0.95996   0.08973   0.83315   1.000
    N108    N    0.98994   0.15377   0.78230   1.000
    N109    N    0.08401   0.15728   0.90619   1.000
    N110    N    0.24709   0.40689   0.73648   1.000
    N111    N    0.98328   0.09164   0.09250   1.000
    N112    N    0.04001   0.08962   0.16647   1.000
    N113    N    0.01003   0.15354   0.21734   1.000
    N114    N    0.91558   0.15692   0.09360   1.000
    N115    N    0.75301   0.40666   0.26327   1.000
    N116    N    0.48330   0.40825   0.40752   1.000
    N117    N    0.54020   0.41022   0.33363   1.000
    N118    N    0.51021   0.34630   0.28270   1.000
    N119    N    0.41562   0.34290   0.40642   1.000
    N120    N    0.25293   0.09323   0.23661   1.000
    N121    N    0.51667   0.40822   0.59280   1.000
    N122    N    0.46007   0.41026   0.66682   1.000
    N123    N    0.49000   0.34626   0.71768   1.000
    N124    N    0.58423   0.34286   0.59381   1.000
    N125    N    0.74697   0.09321   0.76349   1.000
    Cl126   Cl   0.21658   0.00022   0.03689   1.000
    Cl127   Cl   0.78341   0.99986   0.96309   1.000
    Cl128   Cl   0.28346   0.50010   0.53692   1.000
    Cl129   Cl   0.71650   0.49986   0.46309   1.000
loop_
    _geom_bond_atom_site_label_1
    _geom_bond_atom_site_label_2
    _geom_bond_distance
    _geom_bond_site_symmetry_2
    _ccdc_geom_bond_type
    Cl126  Cu1       2.40830  1_545   S
    H25    C70       1.08873      .   S
    H5     C40       1.08881      .   S
    N111   N114      1.32400      .   S
    N111   N112      1.34506  1_655   S
    N111   Cu32      2.03851      .   S
    N86    N89       1.32385      .   S
    N86    N87       1.34441  1_655   S
    N86    Cu32      2.04252  1_565   S
    N114   C68       1.35297      .   S
    N89    C38       1.35243      .   S
    H19    C60       1.09171      .   S
    H31    C78       1.09166      .   S
    H26    C71       1.08916      .   S
    H6     C41       1.08914      .   S
    C70    C71       1.38576      .   S
    C70    C69       1.40467      .   S
    C40    C41       1.38573      .   S
    C40    C39       1.40462      .   S
    N112   Cu1       2.03996  1_545   S
    N112   N113      1.32743      .   S
    N87    Cu1       2.03848      .   S
    N87    N88       1.32773      .   S
    C68    C69       1.45659      .   S
    C68    N113      1.35423  1_655   S
    C38    C39       1.45603      .   S
    C38    N88       1.35405  1_655   S
    H20    C61       1.08866      .   S
    H33    C79       1.08850      .   S
    C71    N115      1.35024      .   S
    C41    N90       1.35037      .   S
    Cu1    N120      2.04828  1_565   S
    Cu1    N105      2.04901      .   S
    C60    C61       1.38725      .   S
    C60    N105      1.35005      .   S
    C78    C79       1.38725      .   S
    C78    N120      1.35017      .   S
    C69    C73       1.40366      .   S
    C39    C43       1.40351      .   S
    C61    C57       1.40343      .   S
    C79    C75       1.40404      .   S
    N120   C77       1.35025      .   S
    N105   C59       1.35040      .   S
    N115   C72       1.35016      .   S
    N115   Cu4       2.05066      .   S
    N90    C42       1.35000      .   S
    N90    Cu4       2.04638      .   S
    N103   C56       1.35418      .   S
    N103   N102      1.32762      .   S
    N118   C74       1.35474      .   S
    N118   N117      1.32782      .   S
    C73    C72       1.38745      .   S
    C73    H28       1.08877      .   S
    C43    C42       1.38718      .   S
    C43    H8        1.08867      .   S
    C57    C56       1.45609      .   S
    C57    C58       1.40462      .   S
    C75    C74       1.45655      .   S
    C75    C76       1.40469      .   S
    C72    H27       1.09177      .   S
    C42    H7        1.09169      .   S
    Cu4    N102      2.04065      .   S
    Cu4    N117      2.03760      .   S
    Cu4    Cl129     2.40831      .   S
    C77    C76       1.38576      .   S
    C77    H30       1.08921      .   S
    C59    C58       1.38571      .   S
    C59    H18       1.08916      .   S
    C56    N104      1.35238      .   S
    C74    N119      1.35251      .   S
    N102   N101      1.34470      .   S
    N117   N116      1.34479      .   S
    C58    H17       1.08884      .   S
    C76    H29       1.08872      .   S
    N104   N101      1.32385      .   S
    N119   N116      1.32395      .   S
    N101   Cu0       2.04213      .   S
    N116   Cu0       2.03916      .   S
    Cu0    N96       2.03918      .   S
    Cu0    N121      2.04226      .   S
    Cl128  Cu3       2.40833      .   S
    H13    C52       1.08884      .   S
    H34    C82       1.08876      .   S
    N96    N99       1.32393      .   S
    N96    N97       1.34467      .   S
    N121   N124      1.32393      .   S
    N121   N122      1.34463      .   S
    N99    C50       1.35252      .   S
    N124   C80       1.35241      .   S
    H23    C66       1.09169      .   S
    H11    C48       1.09116      .   S
    H14    C53       1.08924      .   S
    H35    C83       1.08912      .   S
    C52    C53       1.38579      .   S
    C52    C51       1.40468      .   S
    C82    C83       1.38572      .   S
    C82    C81       1.40466      .   S
    N97    Cu3       2.03668      .   S
    N97    N98       1.32748      .   S
    N122   Cu3       2.04154      .   S
    N122   N123      1.32770      .   S
    C50    C51       1.45651      .   S
    C50    N98       1.35435      .   S
    C80    C81       1.45612      .   S
    C80    N123      1.35427      .   S
    H24    C67       1.08866      .   S
    H12    C49       1.08872      .   S
    C53    N100      1.35020      .   S
    C83    N125      1.35028      .   S
    Cu3    N110      2.04544      .   S
    Cu3    N95       2.05150      .   S
    C66    C67       1.38712      .   S
    C66    N110      1.34996      .   S
    C48    C49       1.38766      .   S
    C48    N95       1.35049      .   S
    C51    C55       1.40362      .   S
    C81    C85       1.40355      .   S
    C67    C63       1.40349      .   S
    C49    C45       1.40372      .   S
    N110   C65       1.35033      .   S
    N95    C47       1.35022      .   S
    N100   C54       1.34936      .   S
    N100   Cu2       2.04934      .   S
    N125   C84       1.35009      .   S
    N125   Cu2       2.04836  1_545   S
    N108   C62       1.35415  1_655   S
    N108   N107      1.32775      .   S
    N93    C44       1.35409  1_655   S
    N93    N92       1.32736      .   S
    C55    C54       1.38693      .   S
    C55    H16       1.08871      .   S
    C85    C84       1.38722      .   S
    C85    H37       1.08862      .   S
    C63    C62       1.45610      .   S
    C63    C64       1.40464      .   S
    C45    C44       1.45653      .   S
    C45    C46       1.40422      .   S
    C54    H15       1.09290      .   S
    C84    H36       1.09175      .   S
    Cu2    N107      2.03876  1_565   S
    Cu2    N92       2.03922      .   S
    Cu2    Cl127     2.40841      .   S
    C65    C64       1.38575      .   S
    C65    H22       1.08922      .   S
    C47    C46       1.38550      .   S
    C47    H10       1.08918      .   S
    C62    N109      1.35234      .   S
    C44    N94       1.35256      .   S
    N107   N106      1.34454  1_655   S
    N92    N91       1.34461  1_655   S
    C64    H21       1.08810      .   S
    C46    H9        1.08934      .   S
    N109   N106      1.32380      .   S
    N94    N91       1.32404      .   S
    N106   Cu32      2.04285  1_456   S
    N91    Cu32      2.03848  1_466   S
