# CIF file generated by openbabel 2.4.90, see http://openbabel.sf.net
data_I
_chemical_name_common ''
_cell_length_a 12.416
_cell_length_b 15.662
_cell_length_c 15.483
_cell_angle_alpha 89.974
_cell_angle_beta 89.987
_cell_angle_gamma 90.033
_space_group_name_H-M_alt 'P 1'
_space_group_name_Hall 'P 1'
loop_
    _symmetry_equiv_pos_as_xyz
    x,y,z
loop_
    _atom_site_label
    _atom_site_type_symbol
    _atom_site_fract_x
    _atom_site_fract_y
    _atom_site_fract_z
    _atom_site_occupancy
    N0      N    0.81189   0.66080   0.23345   1.000
    N1      N    0.18806   0.66108   0.76679   1.000
    N2      N    0.68816   0.83900   0.73322   1.000
    N3      N    0.81188   0.33895   0.23323   1.000
    N4      N    0.18812   0.33924   0.76657   1.000
    N5      N    0.31188   0.83904   0.26664   1.000
    N6      N    0.68808   0.16089   0.73342   1.000
    N7      N    0.31184   0.16090   0.26672   1.000
    Zr8     Zr   0.99999   0.99999   0.00000   1.000
    O9      O    0.12920   0.94809   0.11935   1.000
    O10     O    0.12918   0.05187   0.11937   1.000
    O11     O    0.87081   0.94808   0.88060   1.000
    O12     O    0.87078   0.05187   0.88068   1.000
    O13     O    0.92880   0.14257   0.10493   1.000
    O14     O    0.92885   0.85727   0.10504   1.000
    O15     O    0.07115   0.14273   0.89497   1.000
    O16     O    0.07116   0.85743   0.89508   1.000
    Zr17    Zr   0.49999   0.49997   0.50000   1.000
    O18     O    0.42881   0.64261   0.39498   1.000
    O19     O    0.42880   0.35732   0.39507   1.000
    O20     O    0.57118   0.35732   0.60504   1.000
    O21     O    0.37076   0.55193   0.61941   1.000
    O22     O    0.37080   0.44816   0.61932   1.000
    O23     O    0.62920   0.44804   0.38060   1.000
    O24     O    0.62919   0.55182   0.38069   1.000
    O25     O    0.57118   0.64260   0.60493   1.000
loop_
    _geom_bond_atom_site_label_1
    _geom_bond_atom_site_label_2
    _geom_bond_distance
    _geom_bond_site_symmetry_2
    _ccdc_geom_bond_type
    Zr8    O9        2.57892  1_655   S
    N5     O9        3.64222      .   S
    Zr8    O10       2.57881  1_665   S
    N7     O10       3.64220      .   S
    Zr8    O11       2.57919  1_554   S
    N2     O11       3.64278      .   S
    Zr8    O12       2.57851  1_564   S
    N6     O12       3.64176      .   S
    Zr8    O13       2.90045  1_565   S
    N3     O13       3.93977      .   S
    Zr8    O14       2.90088      .   S
    N0     O14       3.93932      .   S
    Zr8    O15       2.90121  1_664   S
    N4     O15       3.93978      .   S
    Zr8    O16       2.90005  1_654   S
    N1     O16       3.93934      .   S
    Zr17   O18       2.90104      .   S
    N5     O18       3.93967      .   S
    Zr17   O19       2.90067      .   S
    N7     O19       3.93999      .   S
    Zr17   O20       2.90122      .   S
    N6     O20       3.94002      .   S
    Zr17   O21       2.57997      .   S
    N1     O21       3.64429      .   S
    Zr17   O22       2.57678      .   S
    N4     O22       3.63895      .   S
    Zr17   O23       2.57955      .   S
    N3     O23       3.64370      .   S
    Zr17   O24       2.57705      .   S
    N0     O24       3.63950      .   S
    Zr17   O25       2.90036      .   S
    N2     O25       3.93946      .   S
