# CIF file generated by openbabel 2.4.90, see http://openbabel.sf.net
data_I
_chemical_name_common ''
_cell_length_a 13.716
_cell_length_b 14.213
_cell_length_c 15.984
_cell_angle_alpha 90
_cell_angle_beta 90.002
_cell_angle_gamma 90.003
_space_group_name_H-M_alt 'P 1'
_space_group_name_Hall 'P 1'
loop_
    _symmetry_equiv_pos_as_xyz
    x,y,z
loop_
    _atom_site_label
    _atom_site_type_symbol
    _atom_site_fract_x
    _atom_site_fract_y
    _atom_site_fract_z
    _atom_site_occupancy
    H0      H    0.27509   0.92686   0.80599   1.000
    H1      H    0.77510   0.92681   0.80595   1.000
    H2      H    0.28524   0.04341   0.68817   1.000
    H3      H    0.78524   0.04337   0.68813   1.000
    H4      H    0.47474   0.08172   0.69800   1.000
    H5      H    0.97474   0.08169   0.69830   1.000
    H6      H    0.46456   0.96495   0.81604   1.000
    H7      H    0.96457   0.96493   0.81602   1.000
    H8      H    0.47482   0.07300   0.30607   1.000
    H9      H    0.97484   0.07303   0.30605   1.000
    H10     H    0.46472   0.95644   0.18825   1.000
    H11     H    0.96473   0.95647   0.18822   1.000
    H12     H    0.27527   0.91852   0.19826   1.000
    H13     H    0.77529   0.91857   0.19822   1.000
    H14     H    0.28541   0.03529   0.31590   1.000
    H15     H    0.78543   0.03533   0.31587   1.000
    H16     H    0.22470   0.42594   0.69252   1.000
    H17     H    0.72471   0.42593   0.69252   1.000
    H18     H    0.21441   0.54274   0.81011   1.000
    H19     H    0.71442   0.54274   0.81012   1.000
    H20     H    0.02493   0.58106   0.80009   1.000
    H21     H    0.52494   0.58106   0.80008   1.000
    H22     H    0.03517   0.46447   0.68231   1.000
    H23     H    0.53518   0.46447   0.68230   1.000
    H24     H    0.02530   0.57387   0.19236   1.000
    H25     H    0.52530   0.57387   0.19236   1.000
    H26     H    0.03557   0.45706   0.30996   1.000
    H27     H    0.53557   0.45706   0.30996   1.000
    H28     H    0.22498   0.41921   0.30026   1.000
    H29     H    0.72498   0.41923   0.30027   1.000
    H30     H    0.21475   0.53581   0.18248   1.000
    H31     H    0.71476   0.53582   0.18249   1.000
    C32     C    0.11325   0.86898   0.88639   1.000
    C33     C    0.61326   0.86898   0.88639   1.000
    C34     C    0.11926   0.93908   0.81750   1.000
    C35     C    0.61927   0.93907   0.81700   1.000
    C36     C    0.21000   0.96134   0.78192   1.000
    C37     C    0.71000   0.96131   0.78189   1.000
    C38     C    0.21556   0.02588   0.71683   1.000
    C39     C    0.71557   0.02585   0.71681   1.000
    C40     C    0.13052   0.06919   0.68662   1.000
    C41     C    0.63053   0.06918   0.68661   1.000
    C42     C    0.03984   0.04727   0.72249   1.000
    C43     C    0.53985   0.04728   0.72250   1.000
    C44     C    0.03426   0.98264   0.78750   1.000
    C45     C    0.53427   0.98265   0.78751   1.000
    C46     C    0.13628   0.13757   0.61630   1.000
    C47     C    0.63629   0.13757   0.61638   1.000
    C48     C    0.13668   0.13106   0.38637   1.000
    C49     C    0.63669   0.13106   0.38637   1.000
    C50     C    0.13068   0.06097   0.31748   1.000
    C51     C    0.63069   0.06098   0.31747   1.000
    C52     C    0.03993   0.03862   0.28194   1.000
    C53     C    0.53994   0.03861   0.28195   1.000
    C54     C    0.03439   0.97408   0.21685   1.000
    C55     C    0.53439   0.97407   0.21686   1.000
    C56     C    0.11945   0.93086   0.18659   1.000
    C57     C    0.61946   0.93087   0.18650   1.000
    C58     C    0.21015   0.95287   0.22241   1.000
    C59     C    0.71016   0.95290   0.22230   1.000
    C60     C    0.21570   0.01750   0.28742   1.000
    C61     C    0.71572   0.01753   0.28740   1.000
    C62     C    0.11370   0.86246   0.11637   1.000
    C63     C    0.61371   0.86247   0.11637   1.000
    C64     C    0.38643   0.36856   0.61160   1.000
    C65     C    0.88644   0.36856   0.61169   1.000
    C66     C    0.38049   0.43843   0.68080   1.000
    C67     C    0.88050   0.43843   0.68081   1.000
    C68     C    0.28977   0.46056   0.71600   1.000
    C69     C    0.78977   0.46055   0.71650   1.000
    C70     C    0.28413   0.52521   0.78152   1.000
    C71     C    0.78414   0.52520   0.78152   1.000
    C72     C    0.36912   0.56866   0.81171   1.000
    C73     C    0.86913   0.56866   0.81171   1.000
    C74     C    0.45983   0.54664   0.77590   1.000
    C75     C    0.95984   0.54664   0.77595   1.000
    C76     C    0.46545   0.48208   0.71084   1.000
    C77     C    0.96546   0.48207   0.71085   1.000
    C78     C    0.36322   0.63737   0.88171   1.000
    C79     C    0.86323   0.63737   0.88171   1.000
    C80     C    0.36354   0.63147   0.11168   1.000
    C81     C    0.86355   0.63147   0.11160   1.000
    C82     C    0.36947   0.56161   0.18081   1.000
    C83     C    0.86948   0.56162   0.18080   1.000
    C84     C    0.46022   0.53936   0.21642   1.000
    C85     C    0.96022   0.53936   0.21642   1.000
    C86     C    0.46585   0.47470   0.28143   1.000
    C87     C    0.96585   0.47470   0.28144   1.000
    C88     C    0.38083   0.43138   0.31172   1.000
    C89     C    0.88084   0.43139   0.31172   1.000
    C90     C    0.29010   0.45353   0.27604   1.000
    C91     C    0.79011   0.45354   0.27605   1.000
    C92     C    0.28449   0.51810   0.21095   1.000
    C93     C    0.78450   0.51811   0.21096   1.000
    C94     C    0.38673   0.36266   0.38171   1.000
    C95     C    0.88674   0.36266   0.38171   1.000
    O96     O    0.02850   0.84753   0.91339   1.000
    O97     O    0.52851   0.84753   0.91339   1.000
    O98     O    0.22073   0.15649   0.58723   1.000
    O99     O    0.72074   0.15649   0.58723   1.000
    O100    O    0.19371   0.83490   0.91336   1.000
    O101    O    0.69372   0.83489   0.91336   1.000
    O102    O    0.05586   0.17252   0.59013   1.000
    O103    O    0.55587   0.17252   0.59010   1.000
    O104    O    0.22144   0.15250   0.41338   1.000
    O105    O    0.72145   0.15250   0.41338   1.000
    O106    O    0.02925   0.84354   0.08722   1.000
    O107    O    0.52926   0.84354   0.08722   1.000
    O108    O    0.05622   0.16514   0.41334   1.000
    O109    O    0.55623   0.16514   0.41334   1.000
    O110    O    0.19411   0.82751   0.09013   1.000
    O111    O    0.69412   0.82751   0.09013   1.000
    O112    O    0.47097   0.34885   0.58313   1.000
    O113    O    0.97098   0.34884   0.58313   1.000
    O114    O    0.27856   0.65816   0.90931   1.000
    O115    O    0.77857   0.65815   0.90931   1.000
    O116    O    0.30608   0.33292   0.58605   1.000
    O117    O    0.80609   0.33292   0.58605   1.000
    O118    O    0.44367   0.67084   0.90930   1.000
    O119    O    0.94368   0.67084   0.90930   1.000
    O120    O    0.27901   0.65119   0.08312   1.000
    O121    O    0.77902   0.65119   0.08312   1.000
    O122    O    0.47139   0.34187   0.40930   1.000
    O123    O    0.97140   0.34187   0.40930   1.000
    O124    O    0.44389   0.66710   0.08604   1.000
    O125    O    0.94390   0.66710   0.08600   1.000
    O126    O    0.30627   0.32919   0.40930   1.000
    O127    O    0.80628   0.32919   0.40930   1.000
loop_
    _geom_bond_atom_site_label_1
    _geom_bond_atom_site_label_2
    _geom_bond_distance
    _geom_bond_site_symmetry_2
    _ccdc_geom_bond_type
    O120   C80       1.27723      .   S
    O121   C81       1.27677      .   S
    O125   C81       1.28003      .   S
    O124   C80       1.28024      .   S
    O106   C62       1.27712      .   S
    O107   C63       1.27713      .   S
    O111   C63       1.28040      .   S
    O110   C62       1.28038      .   S
    C81    C83       1.48857      .   S
    C80    C82       1.48777      .   S
    C62    C56       1.48695      .   S
    C63    C57       1.48590      .   S
    C83    C93       1.40476      .   S
    C83    C85       1.40474      .   S
    C82    C92       1.40468      .   S
    C82    C84       1.40467      .   S
    H30    C92       1.08875      .   S
    H31    C93       1.08878      .   S
    C57    C55       1.40502      .   S
    C57    C59       1.40458      .   S
    C56    C54       1.40456      .   S
    C56    C58       1.40460      .   S
    H11    C54       1.08853  1_655   S
    H10    C55       1.08868      .   S
    H25    C84       1.08879      .   S
    H24    C85       1.08859  1_455   S
    H13    C59       1.08828      .   S
    H12    C58       1.08875      .   S
    C92    C90       1.38949      .   S
    C93    C91       1.38950      .   S
    C84    C86       1.38934      .   S
    C85    C87       1.38947      .   S
    C54    C52       1.38909  1_565   S
    C55    C53       1.38910  1_565   S
    C59    C61       1.39007  1_565   S
    C58    C60       1.38900  1_565   S
    C90    H28       1.08881      .   S
    C90    C88       1.40464      .   S
    C91    H29       1.08880      .   S
    C91    C89       1.40460      .   S
    C86    H27       1.08880      .   S
    C86    C88       1.40467      .   S
    C87    H26       1.08854  1_655   S
    C87    C89       1.40460      .   S
    C52    H9        1.08859  1_455   S
    C52    C50       1.40451      .   S
    C53    H8        1.08874      .   S
    C53    C51       1.40449      .   S
    C61    H15       1.08873      .   S
    C61    C51       1.40453      .   S
    C60    H14       1.08871      .   S
    C60    C50       1.40459      .   S
    C89    C95       1.48737      .   S
    C88    C94       1.48733      .   S
    C51    C49       1.48723      .   S
    C50    C48       1.48714      .   S
    C95    O127      1.28007      .   S
    C95    O123      1.27679      .   S
    C94    O126      1.28006      .   S
    C94    O122      1.27678      .   S
    C48    O108      1.28004      .   S
    C48    O104      1.27699      .   S
    C49    O109      1.28002      .   S
    C49    O105      1.27700      .   S
    O112   C64       1.27682      .   S
    O113   C65       1.27733      .   S
    O116   C64       1.27980      .   S
    O117   C65       1.28026      .   S
    O99    C47       1.27715      .   S
    O98    C46       1.27666      .   S
    O103   C47       1.28057      .   S
    O102   C46       1.27998      .   S
    C64    C66       1.48870      .   S
    C65    C67       1.48773      .   S
    C46    C40       1.48804      .   S
    C47    C41       1.48699      .   S
    C66    C76       1.40465      .   S
    C66    C68       1.40148      .   S
    C67    C77       1.40465      .   S
    C67    C69       1.40464      .   S
    H23    C76       1.08875      .   S
    H22    C77       1.08855  1_455   S
    C41    C39       1.40457      .   S
    C41    C43       1.40461      .   S
    C40    C38       1.40453      .   S
    C40    C42       1.40457      .   S
    H3     C39       1.08872      .   S
    H2     C38       1.08868      .   S
    H17    C69       1.08878      .   S
    H16    C68       1.08599      .   S
    H4     C43       1.09104      .   S
    H5     C42       1.08902  1_655   S
    C76    C74       1.38908      .   S
    C77    C75       1.38956      .   S
    C68    C70       1.39539      .   S
    C69    C71       1.38940      .   S
    C39    C37       1.38904  1_545   S
    C38    C36       1.38916  1_545   S
    C42    C44       1.38906  1_545   S
    C43    C45       1.38906  1_545   S
    C74    H21       1.08903      .   S
    C74    C72       1.40491      .   S
    C75    H20       1.08863  1_655   S
    C75    C73       1.40458      .   S
    C70    H18       1.08871      .   S
    C70    C72       1.40464      .   S
    C71    H19       1.08878      .   S
    C71    C73       1.40465      .   S
    C37    H1        1.08877      .   S
    C37    C35       1.40132      .   S
    C36    H0        1.08875      .   S
    C36    C34       1.40446      .   S
    C44    H7        1.08852  1_455   S
    C44    C34       1.40455      .   S
    C45    H6        1.08870      .   S
    C45    C35       1.40188      .   S
    C72    C78       1.48736      .   S
    C73    C79       1.48737      .   S
    C35    C33       1.49307      .   S
    C34    C32       1.48720      .   S
    C78    O118      1.28000      .   S
    C78    O114      1.27684      .   S
    C79    O119      1.28001      .   S
    C79    O115      1.27684      .   S
    C32    O100      1.28001      .   S
    C32    O96       1.27698      .   S
    C33    O101      1.28001      .   S
    C33    O97       1.27695      .   S
