# CIF file generated by openbabel 2.4.90, see http://openbabel.sf.net
data_I
_chemical_name_common ''
_cell_length_a 13.716
_cell_length_b 14.213
_cell_length_c 15.984
_cell_angle_alpha 90
_cell_angle_beta 90.002
_cell_angle_gamma 90.003
_space_group_name_H-M_alt 'P 1'
_space_group_name_Hall 'P 1'
loop_
    _symmetry_equiv_pos_as_xyz
    x,y,z
loop_
    _atom_site_label
    _atom_site_type_symbol
    _atom_site_fract_x
    _atom_site_fract_y
    _atom_site_fract_z
    _atom_site_occupancy
    O0      O    0.35833   0.80607   0.00013   1.000
    O1      O    0.85834   0.80607   0.00013   1.000
    O2      O    0.39165   0.19395   0.50014   1.000
    O3      O    0.89166   0.19395   0.50010   1.000
    O4      O    0.14168   0.30516   0.49722   1.000
    O5      O    0.64169   0.30516   0.49720   1.000
    O6      O    0.10829   0.69487   0.99723   1.000
    O7      O    0.60830   0.69487   0.99723   1.000
