# CIF file generated by openbabel 2.4.90, see http://openbabel.sf.net
data_I
_chemical_name_common ''
_cell_length_a 13.716
_cell_length_b 14.213
_cell_length_c 15.984
_cell_angle_alpha 90
_cell_angle_beta 90.002
_cell_angle_gamma 90.003
_space_group_name_H-M_alt 'P 1'
_space_group_name_Hall 'P 1'
loop_
    _symmetry_equiv_pos_as_xyz
    x,y,z
loop_
    _atom_site_label
    _atom_site_type_symbol
    _atom_site_fract_x
    _atom_site_fract_y
    _atom_site_fract_z
    _atom_site_occupancy
    Zr0     Zr   0.46908   0.76398   0.99910   1.000
    Zr1     Zr   0.96908   0.76398   0.99910   1.000
    Zr2     Zr   0.28089   0.23605   0.49910   1.000
    Zr3     Zr   0.78090   0.23605   0.49910   1.000
    Zr4     Zr   0.03075   0.26363   0.49869   1.000
    Zr5     Zr   0.53075   0.26363   0.49869   1.000
    Zr6     Zr   0.21922   0.73640   0.99869   1.000
    Zr7     Zr   0.71923   0.73641   0.99869   1.000
    Zr8     Zr   0.35833   0.80607   0.00013   1.000
    Zr9     Zr   0.85834   0.80607   0.00013   1.000
    Zr10    Zr   0.39165   0.19395   0.50014   1.000
    Zr11    Zr   0.89166   0.19395   0.50010   1.000
    Zr12    Zr   0.14168   0.30516   0.49722   1.000
    Zr13    Zr   0.64169   0.30516   0.49720   1.000
    Zr14    Zr   0.10829   0.69487   0.99723   1.000
    Zr15    Zr   0.60830   0.69487   0.99723   1.000
    O16     O    0.78878   0.77124   0.99941   1.000
    O17     O    0.91371   0.78502   0.99962   1.000
    O18     O    0.28877   0.77124   0.99941   1.000
    O19     O    0.41370   0.78502   0.99962   1.000
    O20     O    0.58622   0.28439   0.49795   1.000
    O21     O    0.71130   0.27060   0.49815   1.000
    O22     O    0.08621   0.28439   0.49796   1.000
    O23     O    0.21129   0.27060   0.49816   1.000
    O24     O    0.46120   0.22879   0.49942   1.000
    O25     O    0.96120   0.22879   0.49940   1.000
    O26     O    0.83628   0.21500   0.49960   1.000
    O27     O    0.33627   0.21500   0.49962   1.000
    O28     O    0.66376   0.71564   0.99796   1.000
    O29     O    0.53869   0.72942   0.99817   1.000
    O30     O    0.16376   0.71564   0.99796   1.000
    O31     O    0.03869   0.72942   0.99817   1.000
    N32     N    0.36742   0.57130   0.81565   1.000
    O33     O    0.41559   0.61034   0.85032   1.000
    O34     O    0.31185   0.60028   0.85022   1.000
    N35     N    0.88227   0.43397   0.67823   1.000
    O36     O    0.83416   0.39388   0.64452   1.000
    O37     O    0.93784   0.40476   0.64369   1.000
    N38     N    0.36770   0.56606   0.17823   1.000
    O39     O    0.31213   0.59528   0.14369   1.000
    O40     O    0.41582   0.60615   0.14452   1.000
    N41     N    0.86771   0.56606   0.17822   1.000
    O42     O    0.81214   0.59528   0.14369   1.000
    O43     O    0.91583   0.60615   0.14451   1.000
    N44     N    0.13252   0.06563   0.31987   1.000
    O45     O    0.18814   0.09527   0.35399   1.000
    O46     O    0.08430   0.10533   0.35388   1.000
    N47     N    0.63225   0.07156   0.68240   1.000
    O48     O    0.58408   0.11091   0.64805   1.000
    O49     O    0.68783   0.10001   0.64744   1.000
    N50     N    0.13225   0.07157   0.68244   1.000
    O51     O    0.08407   0.11092   0.64808   1.000
    O52     O    0.18783   0.10002   0.64746   1.000
    N53     N    0.63253   0.06563   0.31986   1.000
    O54     O    0.68815   0.09528   0.35399   1.000
    O55     O    0.58431   0.10533   0.35387   1.000
    C56     C    0.11744   0.93441   0.81988   1.000
    O57     O    0.06182   0.90476   0.85400   1.000
    O58     O    0.16565   0.89471   0.85389   1.000
    O59     O    0.12484   0.00377   0.75176   1.000
    C60     C    0.88255   0.42874   0.31568   1.000
    O61     O    0.93811   0.39976   0.35023   1.000
    O62     O    0.83437   0.38969   0.35033   1.000
    O63     O    0.87516   0.49676   0.24647   1.000
    C64     C    0.11772   0.92847   0.18243   1.000
    O65     O    0.06214   0.90002   0.14745   1.000
    O66     O    0.16589   0.88912   0.14808   1.000
    O67     O    0.12512   0.99628   0.25175   1.000
    C68     C    0.61744   0.93441   0.81985   1.000
    O69     O    0.56182   0.90476   0.85398   1.000
    O70     O    0.66566   0.89470   0.85387   1.000
    O71     O    0.62484   0.00376   0.75171   1.000
    C72     C    0.86742   0.57130   0.81568   1.000
    O73     O    0.91560   0.61034   0.85034   1.000
    O74     O    0.81186   0.60028   0.85024   1.000
    O75     O    0.87482   0.50328   0.74647   1.000
    C76     C    0.38254   0.42873   0.31568   1.000
    O77     O    0.43811   0.39975   0.35023   1.000
    O78     O    0.33437   0.38969   0.35034   1.000
    O79     O    0.37515   0.49676   0.24647   1.000
    C80     C    0.61773   0.92847   0.18242   1.000
    O81     O    0.56215   0.90002   0.14745   1.000
    O82     O    0.66590   0.88912   0.14807   1.000
    O83     O    0.62513   0.99628   0.25173   1.000
    C84     C    0.38226   0.43397   0.67820   1.000
    O85     O    0.43784   0.40476   0.64367   1.000
    O86     O    0.33415   0.39388   0.64450   1.000
    O87     O    0.37481   0.50328   0.74643   1.000
loop_
    _geom_bond_atom_site_label_1
    _geom_bond_atom_site_label_2
    _geom_bond_distance
    _geom_bond_site_symmetry_2
    _ccdc_geom_bond_type
    Zr9    O16       1.07483  1_554   S
    Zr7    O16       1.07483      .   S
    Zr9    O17       0.81636  1_554   S
    Zr1    O17       0.81636      .   S
    Zr8    O18       1.07483  1_554   S
    Zr6    O18       1.07483      .   S
    Zr8    O19       0.81636  1_554   S
    Zr0    O19       0.81636      .   S
    Zr13   O20       0.81611      .   S
    Zr5    O20       0.81611      .   S
    Zr13   O21       1.07378      .   S
    Zr3    O21       1.07378      .   S
    Zr12   O22       0.81611      .   S
    Zr4    O22       0.81611      .   S
    Zr12   O23       1.07377      .   S
    Zr2    O23       1.07377      .   S
    Zr5    O24       1.07489      .   S
    Zr10   O24       1.07489      .   S
    Zr4    O25       1.07478  1_455   S
    Zr11   O25       1.07478      .   S
    Zr3    O26       0.81639      .   S
    Zr11   O26       0.81639      .   S
    Zr2    O27       0.81639      .   S
    Zr10   O27       0.81639      .   S
    Zr15   O28       0.81608      .   S
    Zr7    O28       0.81608      .   S
    Zr15   O29       1.07382      .   S
    Zr0    O29       1.07382      .   S
    Zr14   O30       0.81608      .   S
    Zr6    O30       0.81608      .   S
    Zr14   O31       1.07372      .   S
    Zr1    O31       1.07372  1_655   S
    N32    O33       1.02539      .   S
    Zr0    O33       3.31082      .   S
    N32    O34       1.02751      .   S
    Zr6    O34       3.31512      .   S
    N35    O36       1.02489      .   S
    Zr3    O36       3.31190      .   S
    N35    O37       1.02867      .   S
    Zr4    O37       3.31959  1_455   S
    N38    O39       1.02864      .   S
    Zr6    O39       3.31951  1_556   S
    N38    O40       1.02492      .   S
    Zr0    O40       3.31187  1_556   S
    N41    O42       1.02860      .   S
    Zr7    O42       3.31946  1_556   S
    N41    O43       1.02497      .   S
    Zr1    O43       3.31171  1_556   S
    N44    O45       1.02808      .   S
    Zr2    O45       3.31672      .   S
    N44    O46       1.02538      .   S
    Zr4    O46       3.31049      .   S
    N47    O48       1.02510      .   S
    Zr5    O48       3.30841      .   S
    N47    O49       1.02809      .   S
    Zr3    O49       3.31501      .   S
    N50    O51       1.02513      .   S
    Zr4    O51       3.30877      .   S
    N50    O52       1.02818      .   S
    Zr2    O52       3.31528      .   S
    N53    O54       1.02810      .   S
    Zr3    O54       3.31677      .   S
    N53    O55       1.02539      .   S
    Zr5    O55       3.31054      .   S
    C56    O57       1.02811      .   S
    Zr1    O57       3.31668  1_655   S
    C56    O58       1.02533      .   S
    Zr6    O58       3.31043      .   S
    C56    O59       1.47232  1_565   S
    N50    O59       1.47199      .   S
    C60    O61       1.02741      .   S
    Zr4    O61       3.31492  1_455   S
    C60    O62       1.02539      .   S
    Zr3    O62       3.31073      .   S
    C60    O63       1.47271      .   S
    N41    O63       1.47330      .   S
    C64    O65       1.02812      .   S
    Zr1    O65       3.31517  1_656   S
    C64    O66       1.02515      .   S
    Zr6    O66       3.30877  1_556   S
    C64    O67       1.47199      .   S
    N44    O67       1.47229  1_545   S
    C68    O69       1.02820      .   S
    Zr0    O69       3.31701      .   S
    C68    O70       1.02542      .   S
    Zr7    O70       3.31069      .   S
    C68    O71       1.47251  1_565   S
    N47    O71       1.47183      .   S
    C72    O73       1.02534      .   S
    Zr1    O73       3.31059      .   S
    C72    O74       1.02744      .   S
    Zr7    O74       3.31489      .   S
    C72    O75       1.47267      .   S
    N35    O75       1.47332      .   S
    C76    O77       1.02742      .   S
    Zr5    O77       3.31493      .   S
    C76    O78       1.02539      .   S
    Zr2    O78       3.31067      .   S
    C76    O79       1.47267      .   S
    N38    O79       1.47330      .   S
    C80    O81       1.02813      .   S
    Zr0    O81       3.31517  1_556   S
    C80    O82       1.02515      .   S
    Zr7    O82       3.30871  1_556   S
    C80    O83       1.47195      .   S
    N53    O83       1.47234  1_545   S
    C84    O85       1.02864      .   S
    Zr5    O85       3.31943      .   S
    C84    O86       1.02485      .   S
    Zr2    O86       3.31167      .   S
    C84    O87       1.47315      .   S
    N32    O87       1.47283      .   S
