# CIF file generated by openbabel 2.4.90, see http://openbabel.sf.net
data_I
_chemical_name_common ''
_cell_length_a 13.716
_cell_length_b 14.213
_cell_length_c 15.984
_cell_angle_alpha 90
_cell_angle_beta 90.002
_cell_angle_gamma 90.003
_space_group_name_H-M_alt 'P 1'
_space_group_name_Hall 'P 1'
loop_
    _symmetry_equiv_pos_as_xyz
    x,y,z
loop_
    _atom_site_label
    _atom_site_type_symbol
    _atom_site_fract_x
    _atom_site_fract_y
    _atom_site_fract_z
    _atom_site_occupancy
    C0      C    0.46908   0.76398   0.99910   1.000
    C1      C    0.96908   0.76398   0.99910   1.000
    C2      C    0.28089   0.23605   0.49910   1.000
    C3      C    0.78090   0.23605   0.49910   1.000
    C4      C    0.03075   0.26363   0.49869   1.000
    C5      C    0.53075   0.26363   0.49869   1.000
    C6      C    0.21922   0.73640   0.99869   1.000
    C7      C    0.71923   0.73641   0.99869   1.000
    C8      C    0.27509   0.92686   0.80599   1.000
    C9      C    0.77510   0.92681   0.80595   1.000
    C10     C    0.28524   0.04341   0.68817   1.000
    C11     C    0.78524   0.04337   0.68813   1.000
    C12     C    0.47474   0.08172   0.69800   1.000
    C13     C    0.97474   0.08169   0.69830   1.000
    C14     C    0.46456   0.96495   0.81604   1.000
    C15     C    0.96457   0.96493   0.81602   1.000
    C16     C    0.47482   0.07300   0.30607   1.000
    C17     C    0.97484   0.07303   0.30605   1.000
    C18     C    0.46472   0.95644   0.18825   1.000
    C19     C    0.96473   0.95647   0.18822   1.000
    C20     C    0.27527   0.91852   0.19826   1.000
    C21     C    0.77529   0.91857   0.19822   1.000
    C22     C    0.28541   0.03529   0.31590   1.000
    C23     C    0.78543   0.03533   0.31587   1.000
    C24     C    0.22470   0.42594   0.69252   1.000
    C25     C    0.72471   0.42593   0.69252   1.000
    C26     C    0.21441   0.54274   0.81011   1.000
    C27     C    0.71442   0.54274   0.81012   1.000
    C28     C    0.02493   0.58106   0.80009   1.000
    C29     C    0.52494   0.58106   0.80008   1.000
    C30     C    0.03517   0.46447   0.68231   1.000
    C31     C    0.53518   0.46447   0.68230   1.000
    C32     C    0.02530   0.57387   0.19236   1.000
    C33     C    0.52530   0.57387   0.19236   1.000
    C34     C    0.03557   0.45706   0.30996   1.000
    C35     C    0.53557   0.45706   0.30996   1.000
    C36     C    0.22498   0.41921   0.30026   1.000
    C37     C    0.72498   0.41923   0.30027   1.000
    C38     C    0.21475   0.53581   0.18248   1.000
    C39     C    0.71476   0.53582   0.18249   1.000
    C40     C    0.11325   0.86898   0.88639   1.000
    C41     C    0.61326   0.86898   0.88639   1.000
    C42     C    0.11926   0.93908   0.81750   1.000
    C43     C    0.61927   0.93907   0.81700   1.000
    C44     C    0.21000   0.96134   0.78192   1.000
    C45     C    0.71000   0.96131   0.78189   1.000
    C46     C    0.21556   0.02588   0.71683   1.000
    C47     C    0.71557   0.02585   0.71681   1.000
    C48     C    0.13052   0.06919   0.68662   1.000
    C49     C    0.63053   0.06918   0.68661   1.000
    C50     C    0.03984   0.04727   0.72249   1.000
    C51     C    0.53985   0.04728   0.72250   1.000
    C52     C    0.03426   0.98264   0.78750   1.000
    C53     C    0.53427   0.98265   0.78751   1.000
    C54     C    0.13628   0.13757   0.61630   1.000
    C55     C    0.63629   0.13757   0.61638   1.000
    C56     C    0.13668   0.13106   0.38637   1.000
    C57     C    0.63669   0.13106   0.38637   1.000
    C58     C    0.13068   0.06097   0.31748   1.000
    C59     C    0.63069   0.06098   0.31747   1.000
    C60     C    0.03993   0.03862   0.28194   1.000
    C61     C    0.53994   0.03861   0.28195   1.000
    C62     C    0.03439   0.97408   0.21685   1.000
    C63     C    0.53439   0.97407   0.21686   1.000
    C64     C    0.11945   0.93086   0.18659   1.000
    C65     C    0.61946   0.93087   0.18650   1.000
    C66     C    0.21015   0.95287   0.22241   1.000
    C67     C    0.71016   0.95290   0.22230   1.000
    C68     C    0.21570   0.01750   0.28742   1.000
    C69     C    0.71572   0.01753   0.28740   1.000
    C70     C    0.11370   0.86246   0.11637   1.000
    C71     C    0.61371   0.86247   0.11637   1.000
    C72     C    0.38643   0.36856   0.61160   1.000
    C73     C    0.88644   0.36856   0.61169   1.000
    C74     C    0.38049   0.43843   0.68080   1.000
    C75     C    0.88050   0.43843   0.68081   1.000
    C76     C    0.28977   0.46056   0.71600   1.000
    C77     C    0.78977   0.46055   0.71650   1.000
    C78     C    0.28413   0.52521   0.78152   1.000
    C79     C    0.78414   0.52520   0.78152   1.000
    C80     C    0.36912   0.56866   0.81171   1.000
    C81     C    0.86913   0.56866   0.81171   1.000
    C82     C    0.45983   0.54664   0.77590   1.000
    C83     C    0.95984   0.54664   0.77595   1.000
    C84     C    0.46545   0.48208   0.71084   1.000
    C85     C    0.96546   0.48207   0.71085   1.000
    C86     C    0.36322   0.63737   0.88171   1.000
    C87     C    0.86323   0.63737   0.88171   1.000
    C88     C    0.36354   0.63147   0.11168   1.000
    C89     C    0.86355   0.63147   0.11160   1.000
    C90     C    0.36947   0.56161   0.18081   1.000
    C91     C    0.86948   0.56162   0.18080   1.000
    C92     C    0.46022   0.53936   0.21642   1.000
    C93     C    0.96022   0.53936   0.21642   1.000
    C94     C    0.46585   0.47470   0.28143   1.000
    C95     C    0.96585   0.47470   0.28144   1.000
    C96     C    0.38083   0.43138   0.31172   1.000
    C97     C    0.88084   0.43139   0.31172   1.000
    C98     C    0.29010   0.45353   0.27604   1.000
    C99     C    0.79011   0.45354   0.27605   1.000
    C100    C    0.28449   0.51810   0.21095   1.000
    C101    C    0.78450   0.51811   0.21096   1.000
    C102    C    0.38673   0.36266   0.38171   1.000
    C103    C    0.88674   0.36266   0.38171   1.000
    C104    C    0.35833   0.80607   0.00013   1.000
    C105    C    0.85834   0.80607   0.00013   1.000
    C106    C    0.02850   0.84753   0.91339   1.000
    C107    C    0.52851   0.84753   0.91339   1.000
    C108    C    0.22073   0.15649   0.58723   1.000
    C109    C    0.72074   0.15649   0.58723   1.000
    C110    C    0.19371   0.83490   0.91336   1.000
    C111    C    0.69372   0.83489   0.91336   1.000
    C112    C    0.05586   0.17252   0.59013   1.000
    C113    C    0.55587   0.17252   0.59010   1.000
    C114    C    0.39165   0.19395   0.50014   1.000
    C115    C    0.89166   0.19395   0.50010   1.000
    C116    C    0.22144   0.15250   0.41338   1.000
    C117    C    0.72145   0.15250   0.41338   1.000
    C118    C    0.02925   0.84354   0.08722   1.000
    C119    C    0.52926   0.84354   0.08722   1.000
    C120    C    0.05622   0.16514   0.41334   1.000
    C121    C    0.55623   0.16514   0.41334   1.000
    C122    C    0.19411   0.82751   0.09013   1.000
    C123    C    0.69412   0.82751   0.09013   1.000
    C124    C    0.14168   0.30516   0.49722   1.000
    C125    C    0.64169   0.30516   0.49720   1.000
    C126    C    0.47097   0.34885   0.58313   1.000
    C127    C    0.97098   0.34884   0.58313   1.000
    C128    C    0.27856   0.65816   0.90931   1.000
    C129    C    0.77857   0.65815   0.90931   1.000
    C130    C    0.30608   0.33292   0.58605   1.000
    C131    C    0.80609   0.33292   0.58605   1.000
    C132    C    0.44367   0.67084   0.90930   1.000
    C133    C    0.94368   0.67084   0.90930   1.000
    C134    C    0.10829   0.69487   0.99723   1.000
    C135    C    0.60830   0.69487   0.99723   1.000
    C136    C    0.27901   0.65119   0.08312   1.000
    C137    C    0.77902   0.65119   0.08312   1.000
    C138    C    0.47139   0.34187   0.40930   1.000
    C139    C    0.97140   0.34187   0.40930   1.000
    C140    C    0.44389   0.66710   0.08604   1.000
    C141    C    0.94390   0.66710   0.08600   1.000
    C142    C    0.30627   0.32919   0.40930   1.000
    C143    C    0.80628   0.32919   0.40930   1.000
    O144    O    0.78878   0.77124   0.99941   1.000
    O145    O    0.91371   0.78502   0.99962   1.000
    O146    O    0.28877   0.77124   0.99941   1.000
    O147    O    0.41370   0.78502   0.99962   1.000
    O148    O    0.32128   0.64133   0.09740   1.000
    O149    O    0.24912   0.69380   0.04091   1.000
    O150    O    0.82128   0.64133   0.09736   1.000
    O151    O    0.74912   0.69380   0.04091   1.000
    O152    O    0.90373   0.64929   0.09880   1.000
    O153    O    0.95649   0.71554   0.04255   1.000
    O154    O    0.40372   0.64929   0.09886   1.000
    O155    O    0.45649   0.71554   0.04257   1.000
    O156    O    0.07147   0.85300   0.10180   1.000
    O157    O    0.99917   0.80376   0.04316   1.000
    O158    O    0.57148   0.85300   0.10180   1.000
    O159    O    0.49917   0.80376   0.04316   1.000
    O160    O    0.65392   0.84499   0.10325   1.000
    O161    O    0.70668   0.78196   0.04441   1.000
    O162    O    0.15391   0.84498   0.10325   1.000
    O163    O    0.20667   0.78196   0.04441   1.000
    O164    O    0.86652   0.59655   0.14620   1.000
    O165    O    0.36651   0.59654   0.14625   1.000
    O166    O    0.11658   0.89666   0.15148   1.000
    O167    O    0.61659   0.89667   0.15144   1.000
    O168    O    0.82699   0.53987   0.19588   1.000
    O169    O    0.91485   0.55049   0.19861   1.000
    O170    O    0.32698   0.53986   0.19588   1.000
    O171    O    0.41485   0.55048   0.19862   1.000
    O172    O    0.24962   0.52696   0.19672   1.000
    O173    O    0.74963   0.52697   0.19673   1.000
    O174    O    0.57693   0.95247   0.20168   1.000
    O175    O    0.66481   0.94188   0.20440   1.000
    O176    O    0.07692   0.95247   0.20172   1.000
    O177    O    0.16480   0.94186   0.20450   1.000
    O178    O    0.99956   0.96528   0.20254   1.000
    O179    O    0.49956   0.96526   0.20256   1.000
    O180    O    0.49276   0.55661   0.20439   1.000
    O181    O    0.99276   0.55661   0.20439   1.000
    O182    O    0.74272   0.93573   0.21026   1.000
    O183    O    0.24271   0.93570   0.21034   1.000
    O184    O    0.28730   0.48582   0.24350   1.000
    O185    O    0.78730   0.48583   0.24351   1.000
    O186    O    0.46303   0.50703   0.24893   1.000
    O187    O    0.96304   0.50703   0.24893   1.000
    O188    O    0.03716   0.00635   0.24940   1.000
    O189    O    0.53717   0.00634   0.24941   1.000
    O190    O    0.71294   0.98521   0.25485   1.000
    O191    O    0.21292   0.98518   0.25492   1.000
    O192    O    0.25754   0.43637   0.28815   1.000
    O193    O    0.33546   0.44245   0.29388   1.000
    O194    O    0.75755   0.43638   0.28816   1.000
    O195    O    0.83547   0.44246   0.29389   1.000
    O196    O    0.50071   0.46588   0.29570   1.000
    O197    O    0.42334   0.45304   0.29658   1.000
    O198    O    0.00071   0.46588   0.29570   1.000
    O199    O    0.92335   0.45304   0.29658   1.000
    O200    O    0.00739   0.05583   0.29400   1.000
    O201    O    0.08530   0.04980   0.29971   1.000
    O202    O    0.50738   0.05581   0.29401   1.000
    O203    O    0.58531   0.04979   0.29971   1.000
    O204    O    0.75057   0.02643   0.30163   1.000
    O205    O    0.67320   0.03925   0.30244   1.000
    O206    O    0.25056   0.02639   0.30166   1.000
    O207    O    0.17319   0.03923   0.30245   1.000
    O208    O    0.88379   0.39702   0.34672   1.000
    O209    O    0.38378   0.39702   0.34672   1.000
    O210    O    0.63369   0.09602   0.35192   1.000
    O211    O    0.13368   0.09601   0.35193   1.000
    O212    O    0.84651   0.34593   0.39551   1.000
    O213    O    0.92907   0.35227   0.39551   1.000
    O214    O    0.34650   0.34592   0.39551   1.000
    O215    O    0.42906   0.35227   0.39551   1.000
    O216    O    0.09645   0.14810   0.39986   1.000
    O217    O    0.17906   0.14178   0.39988   1.000
    O218    O    0.59646   0.14810   0.39986   1.000
    O219    O    0.67907   0.14178   0.39988   1.000
    O220    O    0.79359   0.28262   0.45420   1.000
    O221    O    0.29358   0.28262   0.45420   1.000
    O222    O    0.00107   0.30275   0.45400   1.000
    O223    O    0.50107   0.30275   0.45400   1.000
    O224    O    0.04348   0.21438   0.45602   1.000
    O225    O    0.54349   0.21438   0.45602   1.000
    O226    O    0.25117   0.19427   0.45624   1.000
    O227    O    0.75117   0.19427   0.45624   1.000
    O228    O    0.58622   0.28439   0.49795   1.000
    O229    O    0.71130   0.27060   0.49815   1.000
    O230    O    0.08621   0.28439   0.49796   1.000
    O231    O    0.21129   0.27060   0.49816   1.000
    O232    O    0.46120   0.22879   0.49942   1.000
    O233    O    0.50086   0.30624   0.54091   1.000
    O234    O    0.54331   0.21807   0.54440   1.000
    O235    O    0.96120   0.22879   0.49940   1.000
    O236    O    0.00086   0.30624   0.54091   1.000
    O237    O    0.04331   0.21807   0.54441   1.000
    O238    O    0.83628   0.21500   0.49960   1.000
    O239    O    0.79350   0.28448   0.54258   1.000
    O240    O    0.75082   0.19627   0.54317   1.000
    O241    O    0.33627   0.21500   0.49962   1.000
    O242    O    0.29349   0.28448   0.54258   1.000
    O243    O    0.25081   0.19627   0.54317   1.000
    O244    O    0.42870   0.35870   0.59737   1.000
    O245    O    0.92871   0.35870   0.59741   1.000
    O246    O    0.34626   0.35074   0.59883   1.000
    O247    O    0.84626   0.35074   0.59887   1.000
    O248    O    0.67851   0.14703   0.60181   1.000
    O249    O    0.17851   0.14703   0.60177   1.000
    O250    O    0.59608   0.15504   0.60324   1.000
    O251    O    0.09607   0.15504   0.60322   1.000
    O252    O    0.38346   0.40350   0.64620   1.000
    O253    O    0.88347   0.40349   0.64625   1.000
    O254    O    0.13340   0.10338   0.65146   1.000
    O255    O    0.63341   0.10337   0.65150   1.000
    O256    O    0.42297   0.46025   0.69582   1.000
    O257    O    0.33513   0.44950   0.69840   1.000
    O258    O    0.92298   0.46025   0.69583   1.000
    O259    O    0.83514   0.44949   0.69866   1.000
    O260    O    0.50031   0.47327   0.69657   1.000
    O261    O    0.00031   0.47327   0.69658   1.000
    O262    O    0.67305   0.04751   0.70171   1.000
    O263    O    0.58519   0.05823   0.70456   1.000
    O264    O    0.17304   0.04753   0.70173   1.000
    O265    O    0.08518   0.05823   0.70456   1.000
    O266    O    0.75040   0.03461   0.70247   1.000
    O267    O    0.25040   0.03465   0.70250   1.000
    O268    O    0.75724   0.44324   0.70451   1.000
    O269    O    0.25723   0.44325   0.70426   1.000
    O270    O    0.50729   0.06450   0.71025   1.000
    O271    O    0.00729   0.06448   0.71040   1.000
    O272    O    0.46264   0.51436   0.74337   1.000
    O273    O    0.96265   0.51436   0.74340   1.000
    O274    O    0.28695   0.49288   0.74876   1.000
    O275    O    0.78696   0.49288   0.74901   1.000
    O276    O    0.71279   0.99358   0.74935   1.000
    O277    O    0.21278   0.99361   0.74938   1.000
    O278    O    0.03705   0.01495   0.75500   1.000
    O279    O    0.53706   0.01496   0.75501   1.000
    O280    O    0.49238   0.56385   0.78799   1.000
    O281    O    0.41448   0.55765   0.79381   1.000
    O282    O    0.99238   0.56385   0.78802   1.000
    O283    O    0.91448   0.55765   0.79383   1.000
    O284    O    0.24927   0.53398   0.79582   1.000
    O285    O    0.32662   0.54693   0.79662   1.000
    O286    O    0.74928   0.53397   0.79582   1.000
    O287    O    0.82663   0.54693   0.79662   1.000
    O288    O    0.74255   0.94406   0.79392   1.000
    O289    O    0.66464   0.95019   0.79945   1.000
    O290    O    0.24255   0.94410   0.79396   1.000
    O291    O    0.16463   0.95021   0.79971   1.000
    O292    O    0.99941   0.97378   0.80176   1.000
    O293    O    0.07676   0.96086   0.80250   1.000
    O294    O    0.49942   0.97380   0.80178   1.000
    O295    O    0.57677   0.96086   0.80226   1.000
    O296    O    0.36617   0.60302   0.84671   1.000
    O297    O    0.86618   0.60301   0.84671   1.000
    O298    O    0.61627   0.90402   0.85170   1.000
    O299    O    0.11626   0.90403   0.85195   1.000
    O300    O    0.40345   0.65411   0.89551   1.000
    O301    O    0.32089   0.64776   0.89551   1.000
    O302    O    0.90345   0.65411   0.89551   1.000
    O303    O    0.82090   0.64776   0.89551   1.000
    O304    O    0.15348   0.85194   0.89988   1.000
    O305    O    0.07088   0.85825   0.89989   1.000
    O306    O    0.65349   0.85194   0.89988   1.000
    O307    O    0.57088   0.85825   0.89989   1.000
    O308    O    0.45637   0.71741   0.95420   1.000
    O309    O    0.95638   0.71741   0.95420   1.000
    O310    O    0.24889   0.69728   0.95400   1.000
    O311    O    0.74890   0.69728   0.95400   1.000
    O312    O    0.20647   0.78565   0.95603   1.000
    O313    O    0.70647   0.78565   0.95603   1.000
    O314    O    0.99879   0.80575   0.95625   1.000
    O315    O    0.49879   0.80575   0.95625   1.000
    O316    O    0.66376   0.71564   0.99796   1.000
    O317    O    0.53869   0.72942   0.99817   1.000
    O318    O    0.16376   0.71564   0.99796   1.000
    O319    O    0.03869   0.72942   0.99817   1.000
loop_
    _geom_bond_atom_site_label_1
    _geom_bond_atom_site_label_2
    _geom_bond_distance
    _geom_bond_site_symmetry_2
    _ccdc_geom_bond_type
    C105   O144      1.07483  1_554   S
    C7     O144      1.07483      .   S
    C105   O145      0.81636  1_554   S
    C1     O145      0.81636      .   S
    C104   O146      1.07483  1_554   S
    C6     O146      1.07483      .   S
    C104   O147      0.81636  1_554   S
    C0     O147      0.81636      .   S
    C136   O148      0.63862      .   S
    C88    O148      0.63862      .   S
    C136   O149      0.99508      .   S
    C6     O149      0.99508  1_556   S
    C137   O150      0.63839      .   S
    C89    O150      0.63839      .   S
    C137   O151      0.99508      .   S
    C7     O151      0.99508  1_556   S
    C141   O152      0.64001      .   S
    C89    O152      0.64001      .   S
    C141   O153      0.99302      .   S
    C1     O153      0.99302  1_556   S
    C140   O154      0.64012      .   S
    C88    O154      0.64012      .   S
    C140   O155      0.99325      .   S
    C0     O155      0.99325  1_556   S
    C118   O156      0.63856      .   S
    C70    O156      0.63856      .   S
    C118   O157      0.99292  1_455   S
    C1     O157      0.99292  1_556   S
    C119   O158      0.63856      .   S
    C71    O158      0.63856      .   S
    C119   O159      0.99297      .   S
    C0     O159      0.99297  1_556   S
    C123   O160      0.64020      .   S
    C71    O160      0.64020      .   S
    C123   O161      0.99140      .   S
    C7     O161      0.99140  1_556   S
    C122   O162      0.64019      .   S
    C70    O162      0.64019      .   S
    C122   O163      0.99140      .   S
    C6     O163      0.99140  1_556   S
    C89    O164      0.74428      .   S
    C91    O164      0.74428      .   S
    C88    O165      0.74388      .   S
    C90    O165      0.74388      .   S
    C70    O166      0.74348      .   S
    C64    O166      0.74348      .   S
    C71    O167      0.74295      .   S
    C65    O167      0.74295      .   S
    C91    O168      0.70238      .   S
    C101   O168      0.70238      .   S
    C91    O169      0.70237      .   S
    C93    O169      0.70237      .   S
    C90    O170      0.70234      .   S
    C100   O170      0.70234      .   S
    C90    O171      0.70233      .   S
    C92    O171      0.70233      .   S
    C38    O172      0.54437      .   S
    C100   O172      0.54437      .   S
    C39    O173      0.54439      .   S
    C101   O173      0.54439      .   S
    C65    O174      0.70251      .   S
    C63    O174      0.70251      .   S
    C65    O175      0.70229      .   S
    C67    O175      0.70229      .   S
    C64    O176      0.70228      .   S
    C62    O176      0.70228      .   S
    C64    O177      0.70230      .   S
    C66    O177      0.70230      .   S
    C19    O178      0.54427      .   S
    C62    O178      0.54427  1_455   S
    C18    O179      0.54434      .   S
    C63    O179      0.54434      .   S
    C33    O180      0.54439      .   S
    C92    O180      0.54439      .   S
    C32    O181      0.54429  1_455   S
    C93    O181      0.54429      .   S
    C21    O182      0.54414      .   S
    C67    O182      0.54414      .   S
    C20    O183      0.54438      .   S
    C66    O183      0.54438      .   S
    C100   O184      0.69475      .   S
    C98    O184      0.69475      .   S
    C101   O185      0.69475      .   S
    C99    O185      0.69475      .   S
    C92    O186      0.69467      .   S
    C94    O186      0.69467      .   S
    C93    O187      0.69473      .   S
    C95    O187      0.69473      .   S
    C62    O188      0.69454  1_565   S
    C60    O188      0.69454      .   S
    C63    O189      0.69455  1_565   S
    C61    O189      0.69455      .   S
    C67    O190      0.69504      .   S
    C69    O190      0.69504  1_545   S
    C66    O191      0.69450      .   S
    C68    O191      0.69450  1_545   S
    C98    O192      0.54441      .   S
    C36    O192      0.54441      .   S
    C98    O193      0.70232      .   S
    C96    O193      0.70232      .   S
    C99    O194      0.54440      .   S
    C37    O194      0.54440      .   S
    C99    O195      0.70230      .   S
    C97    O195      0.70230      .   S
    C94    O196      0.54440      .   S
    C35    O196      0.54440      .   S
    C94    O197      0.70234      .   S
    C96    O197      0.70234      .   S
    C95    O198      0.54427  1_655   S
    C34    O198      0.54427      .   S
    C95    O199      0.70230      .   S
    C97    O199      0.70230      .   S
    C60    O200      0.54429      .   S
    C17    O200      0.54429  1_655   S
    C60    O201      0.70225      .   S
    C58    O201      0.70225      .   S
    C61    O202      0.54437      .   S
    C16    O202      0.54437      .   S
    C61    O203      0.70224      .   S
    C59    O203      0.70224      .   S
    C69    O204      0.54437      .   S
    C23    O204      0.54437      .   S
    C69    O205      0.70227      .   S
    C59    O205      0.70227      .   S
    C68    O206      0.54435      .   S
    C22    O206      0.54435      .   S
    C68    O207      0.70229      .   S
    C58    O207      0.70229      .   S
    C97    O208      0.74368      .   S
    C103   O208      0.74368      .   S
    C96    O209      0.74366      .   S
    C102   O209      0.74366      .   S
    C59    O210      0.74361      .   S
    C57    O210      0.74361      .   S
    C58    O211      0.74357      .   S
    C56    O211      0.74357      .   S
    C103   O212      0.64004      .   S
    C143   O212      0.64004      .   S
    C103   O213      0.63840      .   S
    C139   O213      0.63840      .   S
    C102   O214      0.64003      .   S
    C142   O214      0.64003      .   S
    C102   O215      0.63839      .   S
    C138   O215      0.63839      .   S
    C56    O216      0.64002      .   S
    C120   O216      0.64002      .   S
    C56    O217      0.63850      .   S
    C116   O217      0.63850      .   S
    C57    O218      0.64001      .   S
    C121   O218      0.64001      .   S
    C57    O219      0.63850      .   S
    C117   O219      0.63850      .   S
    C143   O220      0.99174      .   S
    C3     O220      0.99174      .   S
    C142   O221      0.99172      .   S
    C2     O221      0.99172      .   S
    C139   O222      0.99259  1_655   S
    C4     O222      0.99259      .   S
    C138   O223      0.99263      .   S
    C5     O223      0.99263      .   S
    C120   O224      0.99280      .   S
    C4     O224      0.99280      .   S
    C121   O225      0.99281      .   S
    C5     O225      0.99281      .   S
    C116   O226      0.99401      .   S
    C2     O226      0.99401      .   S
    C117   O227      0.99399      .   S
    C3     O227      0.99399      .   S
    C125   O228      0.81611      .   S
    C5     O228      0.81611      .   S
    C125   O229      1.07378      .   S
    C3     O229      1.07378      .   S
    C124   O230      0.81611      .   S
    C4     O230      0.81611      .   S
    C124   O231      1.07377      .   S
    C2     O231      1.07377      .   S
    C5     O232      1.07489      .   S
    C114   O232      1.07489      .   S
    C5     O233      0.99515      .   S
    C126   O233      0.99515      .   S
    C5     O234      0.99126      .   S
    C113   O234      0.99126      .   S
    C4     O235      1.07478  1_455   S
    C115   O235      1.07478      .   S
    C4     O236      0.99510      .   S
    C127   O236      0.99510  1_655   S
    C4     O237      0.99144      .   S
    C112   O237      0.99144      .   S
    C3     O238      0.81639      .   S
    C115   O238      0.81639      .   S
    C3     O239      0.99328      .   S
    C131   O239      0.99328      .   S
    C3     O240      0.99297      .   S
    C109   O240      0.99297      .   S
    C2     O241      0.81639      .   S
    C114   O241      0.81639      .   S
    C2     O242      0.99328      .   S
    C130   O242      0.99328      .   S
    C2     O243      0.99296      .   S
    C108   O243      0.99296      .   S
    C126   O244      0.63841      .   S
    C72    O244      0.63841      .   S
    C127   O245      0.63867      .   S
    C73    O245      0.63867      .   S
    C130   O246      0.63990      .   S
    C72    O246      0.63990      .   S
    C131   O247      0.64013      .   S
    C73    O247      0.64013      .   S
    C109   O248      0.63857      .   S
    C55    O248      0.63857      .   S
    C108   O249      0.63833      .   S
    C54    O249      0.63833      .   S
    C113   O250      0.64028      .   S
    C55    O250      0.64028      .   S
    C112   O251      0.63999      .   S
    C54    O251      0.63999      .   S
    C72    O252      0.74435      .   S
    C74    O252      0.74435      .   S
    C73    O253      0.74387      .   S
    C75    O253      0.74387      .   S
    C54    O254      0.74402      .   S
    C48    O254      0.74402      .   S
    C55    O255      0.74349      .   S
    C49    O255      0.74349      .   S
    C74    O256      0.70232      .   S
    C84    O256      0.70232      .   S
    C74    O257      0.70074      .   S
    C76    O257      0.70074      .   S
    C75    O258      0.70232      .   S
    C85    O258      0.70232      .   S
    C75    O259      0.70232      .   S
    C77    O259      0.70232      .   S
    C31    O260      0.54438      .   S
    C84    O260      0.54438      .   S
    C30    O261      0.54427      .   S
    C85    O261      0.54427  1_655   S
    C49    O262      0.70229      .   S
    C47    O262      0.70229      .   S
    C49    O263      0.70230      .   S
    C51    O263      0.70230      .   S
    C48    O264      0.70227      .   S
    C46    O264      0.70227      .   S
    C48    O265      0.70229      .   S
    C50    O265      0.70229      .   S
    C11    O266      0.54436      .   S
    C47    O266      0.54436      .   S
    C10    O267      0.54434      .   S
    C46    O267      0.54434      .   S
    C25    O268      0.54439      .   S
    C77    O268      0.54439      .   S
    C24    O269      0.54299      .   S
    C76    O269      0.54299      .   S
    C12    O270      0.54552      .   S
    C51    O270      0.54552      .   S
    C13    O271      0.54451  1_655   S
    C50    O271      0.54451      .   S
    C84    O272      0.69454      .   S
    C82    O272      0.69454      .   S
    C85    O273      0.69478      .   S
    C83    O273      0.69478      .   S
    C76    O274      0.69770      .   S
    C78    O274      0.69770      .   S
    C77    O275      0.69470      .   S
    C79    O275      0.69470      .   S
    C47    O276      0.69452  1_545   S
    C45    O276      0.69452      .   S
    C46    O277      0.69458  1_545   S
    C44    O277      0.69458      .   S
    C50    O278      0.69453      .   S
    C52    O278      0.69453  1_565   S
    C51    O279      0.69453      .   S
    C53    O279      0.69453  1_565   S
    C82    O280      0.54452      .   S
    C29    O280      0.54452      .   S
    C82    O281      0.70246      .   S
    C80    O281      0.70246      .   S
    C83    O282      0.54432      .   S
    C28    O282      0.54432  1_455   S
    C83    O283      0.70229      .   S
    C81    O283      0.70229      .   S
    C78    O284      0.54436      .   S
    C26    O284      0.54436      .   S
    C78    O285      0.70232      .   S
    C80    O285      0.70232      .   S
    C79    O286      0.54439      .   S
    C27    O286      0.54439      .   S
    C79    O287      0.70233      .   S
    C81    O287      0.70233      .   S
    C45    O288      0.54438      .   S
    C9     O288      0.54438      .   S
    C45    O289      0.70066      .   S
    C43    O289      0.70066      .   S
    C44    O290      0.54437      .   S
    C8     O290      0.54437      .   S
    C44    O291      0.70223      .   S
    C42    O291      0.70223      .   S
    C52    O292      0.54426  1_455   S
    C15    O292      0.54426      .   S
    C52    O293      0.70227      .   S
    C42    O293      0.70227      .   S
    C53    O294      0.54435      .   S
    C14    O294      0.54435      .   S
    C53    O295      0.70094      .   S
    C43    O295      0.70094      .   S
    C80    O296      0.74368      .   S
    C86    O296      0.74368      .   S
    C81    O297      0.74368      .   S
    C87    O297      0.74368      .   S
    C43    O298      0.74654      .   S
    C41    O298      0.74654      .   S
    C42    O299      0.74360      .   S
    C40    O299      0.74360      .   S
    C86    O300      0.64000      .   S
    C132   O300      0.64000      .   S
    C86    O301      0.63842      .   S
    C128   O301      0.63842      .   S
    C87    O302      0.64001      .   S
    C133   O302      0.64001      .   S
    C87    O303      0.63842      .   S
    C129   O303      0.63842      .   S
    C40    O304      0.64000      .   S
    C110   O304      0.64000      .   S
    C40    O305      0.63849      .   S
    C106   O305      0.63849      .   S
    C41    O306      0.64001      .   S
    C111   O306      0.64001      .   S
    C41    O307      0.63847      .   S
    C107   O307      0.63847      .   S
    C132   O308      0.99169      .   S
    C0     O308      0.99169      .   S
    C133   O309      0.99169      .   S
    C1     O309      0.99169      .   S
    C128   O310      0.99254      .   S
    C6     O310      0.99254      .   S
    C129   O311      0.99255      .   S
    C7     O311      0.99255      .   S
    C110   O312      0.99276      .   S
    C6     O312      0.99276      .   S
    C111   O313      0.99274      .   S
    C7     O313      0.99274      .   S
    C106   O314      0.99388  1_455   S
    C1     O314      0.99388      .   S
    C107   O315      0.99393      .   S
    C0     O315      0.99393      .   S
    C135   O316      0.81608      .   S
    C7     O316      0.81608      .   S
    C135   O317      1.07382      .   S
    C0     O317      1.07382      .   S
    C134   O318      0.81608      .   S
    C6     O318      0.81608      .   S
    C134   O319      1.07372      .   S
    C1     O319      1.07372  1_655   S
