# CIF file generated by openbabel 2.4.90, see http://openbabel.sf.net
data_I
_chemical_name_common ''
_cell_length_a 13.716
_cell_length_b 14.213
_cell_length_c 15.984
_cell_angle_alpha 90
_cell_angle_beta 90.002
_cell_angle_gamma 90.003
_space_group_name_H-M_alt 'P 1'
_space_group_name_Hall 'P 1'
loop_
    _symmetry_equiv_pos_as_xyz
    x,y,z
loop_
    _atom_site_label
    _atom_site_type_symbol
    _atom_site_fract_x
    _atom_site_fract_y
    _atom_site_fract_z
    _atom_site_occupancy
    Zr0     Zr   0.46908   0.76398   0.99910   1.000
    Zr1     Zr   0.96908   0.76398   0.99910   1.000
    Zr2     Zr   0.28089   0.23605   0.49910   1.000
    Zr3     Zr   0.78090   0.23605   0.49910   1.000
    Zr4     Zr   0.03075   0.26363   0.49869   1.000
    Zr5     Zr   0.53075   0.26363   0.49869   1.000
    Zr6     Zr   0.21922   0.73640   0.99869   1.000
    Zr7     Zr   0.71923   0.73641   0.99869   1.000
    Zr8     Zr   0.35833   0.80607   0.00013   1.000
    Zr9     Zr   0.85834   0.80607   0.00013   1.000
    Zr10    Zr   0.39165   0.19395   0.50014   1.000
    Zr11    Zr   0.89166   0.19395   0.50010   1.000
    Zr12    Zr   0.14168   0.30516   0.49722   1.000
    Zr13    Zr   0.64169   0.30516   0.49720   1.000
    Zr14    Zr   0.10829   0.69487   0.99723   1.000
    Zr15    Zr   0.60830   0.69487   0.99723   1.000
    O16     O    0.78878   0.77124   0.99941   1.000
    O17     O    0.91371   0.78502   0.99962   1.000
    O18     O    0.28877   0.77124   0.99941   1.000
    O19     O    0.41370   0.78502   0.99962   1.000
    O20     O    0.58622   0.28439   0.49795   1.000
    O21     O    0.71130   0.27060   0.49815   1.000
    O22     O    0.08621   0.28439   0.49796   1.000
    O23     O    0.21129   0.27060   0.49816   1.000
    O24     O    0.46120   0.22879   0.49942   1.000
    O25     O    0.96120   0.22879   0.49940   1.000
    O26     O    0.83628   0.21500   0.49960   1.000
    O27     O    0.33627   0.21500   0.49962   1.000
    O28     O    0.66376   0.71564   0.99796   1.000
    O29     O    0.53869   0.72942   0.99817   1.000
    O30     O    0.16376   0.71564   0.99796   1.000
    O31     O    0.03869   0.72942   0.99817   1.000
    N32     N    0.37481   0.50328   0.74643   1.000
    O33     O    0.41559   0.61034   0.85032   1.000
    O34     O    0.43784   0.40476   0.64367   1.000
    O35     O    0.31185   0.60028   0.85022   1.000
    O36     O    0.33415   0.39388   0.64450   1.000
    N37     N    0.87482   0.50328   0.74647   1.000
    O38     O    0.83416   0.39388   0.64452   1.000
    O39     O    0.91560   0.61034   0.85034   1.000
    O40     O    0.93784   0.40476   0.64369   1.000
    O41     O    0.81186   0.60028   0.85024   1.000
    N42     N    0.37515   0.49676   0.24647   1.000
    O43     O    0.31213   0.59528   0.14369   1.000
    O44     O    0.43811   0.39975   0.35023   1.000
    O45     O    0.41582   0.60615   0.14452   1.000
    O46     O    0.33437   0.38969   0.35034   1.000
    N47     N    0.87516   0.49676   0.24647   1.000
    O48     O    0.81214   0.59528   0.14369   1.000
    O49     O    0.93811   0.39976   0.35023   1.000
    O50     O    0.91583   0.60615   0.14451   1.000
    O51     O    0.83437   0.38969   0.35033   1.000
    N52     N    0.12512   0.99628   0.25175   1.000
    O53     O    0.18814   0.09527   0.35399   1.000
    O54     O    0.06214   0.90002   0.14745   1.000
    O55     O    0.08430   0.10533   0.35388   1.000
    O56     O    0.16589   0.88912   0.14808   1.000
    N57     N    0.62484   0.00376   0.75171   1.000
    O58     O    0.58408   0.11091   0.64805   1.000
    O59     O    0.56182   0.90476   0.85398   1.000
    O60     O    0.68783   0.10001   0.64744   1.000
    O61     O    0.66566   0.89470   0.85387   1.000
    N62     N    0.12484   0.00377   0.75176   1.000
    O63     O    0.08407   0.11092   0.64808   1.000
    O64     O    0.06182   0.90476   0.85400   1.000
    O65     O    0.18783   0.10002   0.64746   1.000
    O66     O    0.16565   0.89471   0.85389   1.000
    N67     N    0.62513   0.99628   0.25173   1.000
    O68     O    0.68815   0.09528   0.35399   1.000
    O69     O    0.56215   0.90002   0.14745   1.000
    O70     O    0.58431   0.10533   0.35387   1.000
    O71     O    0.66590   0.88912   0.14807   1.000
loop_
    _geom_bond_atom_site_label_1
    _geom_bond_atom_site_label_2
    _geom_bond_distance
    _geom_bond_site_symmetry_2
    _ccdc_geom_bond_type
    Zr9    O16       1.07483  1_554   S
    Zr7    O16       1.07483      .   S
    Zr9    O17       0.81636  1_554   S
    Zr1    O17       0.81636      .   S
    Zr8    O18       1.07483  1_554   S
    Zr6    O18       1.07483      .   S
    Zr8    O19       0.81636  1_554   S
    Zr0    O19       0.81636      .   S
    Zr13   O20       0.81611      .   S
    Zr5    O20       0.81611      .   S
    Zr13   O21       1.07378      .   S
    Zr3    O21       1.07378      .   S
    Zr12   O22       0.81611      .   S
    Zr4    O22       0.81611      .   S
    Zr12   O23       1.07377      .   S
    Zr2    O23       1.07377      .   S
    Zr5    O24       1.07489      .   S
    Zr10   O24       1.07489      .   S
    Zr4    O25       1.07478  1_455   S
    Zr11   O25       1.07478      .   S
    Zr3    O26       0.81639      .   S
    Zr11   O26       0.81639      .   S
    Zr2    O27       0.81639      .   S
    Zr10   O27       0.81639      .   S
    Zr15   O28       0.81608      .   S
    Zr7    O28       0.81608      .   S
    Zr15   O29       1.07382      .   S
    Zr0    O29       1.07382      .   S
    Zr14   O30       0.81608      .   S
    Zr6    O30       0.81608      .   S
    Zr14   O31       1.07372      .   S
    Zr1    O31       1.07372  1_655   S
    N32    O33       2.32068      .   S
    Zr0    O33       3.31082      .   S
    N32    O34       2.32513      .   S
    Zr5    O34       3.31943      .   S
    N32    O35       2.32348      .   S
    Zr6    O35       3.31512      .   S
    N32    O36       2.32011      .   S
    Zr2    O36       3.31167      .   S
    N37    O38       2.32034      .   S
    Zr3    O38       3.31190      .   S
    N37    O39       2.32046      .   S
    Zr1    O39       3.31059      .   S
    N37    O40       2.32535      .   S
    Zr4    O40       3.31959  1_455   S
    N37    O41       2.32325      .   S
    Zr7    O41       3.31489      .   S
    N42    O43       2.32529      .   S
    Zr6    O43       3.31951  1_556   S
    N42    O44       2.32321      .   S
    Zr5    O44       3.31493      .   S
    N42    O45       2.32035      .   S
    Zr0    O45       3.31187  1_556   S
    N42    O46       2.32051      .   S
    Zr2    O46       3.31067      .   S
    N47    O48       2.32524      .   S
    Zr7    O48       3.31946  1_556   S
    N47    O49       2.32325      .   S
    Zr4    O49       3.31492  1_455   S
    N47    O50       2.32042      .   S
    Zr1    O50       3.31171  1_556   S
    N47    O51       2.32056      .   S
    Zr3    O51       3.31073      .   S
    N52    O53       2.32331  1_565   S
    Zr2    O53       3.31672      .   S
    N52    O54       2.32307      .   S
    Zr1    O54       3.31517  1_656   S
    N52    O55       2.31974  1_565   S
    Zr4    O55       3.31049      .   S
    N52    O56       2.31913      .   S
    Zr6    O56       3.30877  1_556   S
    N57    O58       2.31890      .   S
    Zr5    O58       3.30841      .   S
    N57    O59       2.32368  1_545   S
    Zr0    O59       3.31701      .   S
    N57    O60       2.32286      .   S
    Zr3    O60       3.31501      .   S
    N57    O61       2.31999  1_545   S
    Zr7    O61       3.31069      .   S
    N62    O63       2.31909      .   S
    Zr4    O63       3.30877      .   S
    N62    O64       2.32340  1_545   S
    Zr1    O64       3.31668  1_655   S
    N62    O65       2.32313      .   S
    Zr2    O65       3.31528      .   S
    N62    O66       2.31972  1_545   S
    Zr6    O66       3.31043      .   S
    N67    O68       2.32338  1_565   S
    Zr3    O68       3.31677      .   S
    N67    O69       2.32302      .   S
    Zr0    O69       3.31517  1_556   S
    N67    O70       2.31979  1_565   S
    Zr5    O70       3.31054      .   S
    N67    O71       2.31907      .   S
    Zr7    O71       3.30871  1_556   S
