# CIF file generated by openbabel 2.4.90, see http://openbabel.sf.net
data_I
_chemical_name_common ''
_cell_length_a 16.645
_cell_length_b 16.816
_cell_length_c 27.26
_cell_angle_alpha 90.069
_cell_angle_beta 90.16
_cell_angle_gamma 89.401
_space_group_name_H-M_alt 'P 1'
_space_group_name_Hall 'P 1'
loop_
    _symmetry_equiv_pos_as_xyz
    x,y,z
loop_
    _atom_site_label
    _atom_site_type_symbol
    _atom_site_fract_x
    _atom_site_fract_y
    _atom_site_fract_z
    _atom_site_occupancy
    H0      H    0.44073   0.46297   0.40413   1.000
    H1      H    0.94081   0.46304   0.40415   1.000
    H2      H    0.16741   0.52361   0.47073   1.000
    H3      H    0.66733   0.52367   0.47066   1.000
    H4      H    0.46641   0.68736   0.46461   1.000
    H5      H    0.96658   0.68740   0.46466   1.000
    H6      H    0.21307   0.58869   0.67259   1.000
    H7      H    0.71282   0.58840   0.67251   1.000
    H8      H    0.30946   0.95779   0.59809   1.000
    H9      H    0.80940   0.95778   0.59808   1.000
    H10     H    0.08590   0.02771   0.52953   1.000
    H11     H    0.58586   0.02772   0.52952   1.000
    H12     H    0.29069   0.18240   0.53674   1.000
    H13     H    0.79065   0.18240   0.53676   1.000
    H14     H    0.04253   0.08933   0.32556   1.000
    H15     H    0.54250   0.08933   0.32552   1.000
    H16     H    0.06222   0.53680   0.90565   1.000
    H17     H    0.56195   0.53736   0.90550   1.000
    H18     H    0.33446   0.47791   0.97056   1.000
    H19     H    0.83456   0.47761   0.97054   1.000
    H20     H    0.03397   0.31207   0.96467   1.000
    H21     H    0.53403   0.31257   0.96456   1.000
    H22     H    0.28998   0.41443   0.17364   1.000
    H23     H    0.78982   0.41438   0.17367   1.000
    H24     H    0.19341   0.04400   0.09751   1.000
    H25     H    0.69337   0.04457   0.09758   1.000
    H26     H    0.41854   0.97518   0.03114   1.000
    H27     H    0.91794   0.97406   0.03114   1.000
    H28     H    0.21463   0.81926   0.03637   1.000
    H29     H    0.71281   0.81971   0.03641   1.000
    H30     H    0.46248   0.91180   0.82678   1.000
    H31     H    0.96245   0.90996   0.82710   1.000
    H32     H    0.06287   0.54061   0.59592   1.000
    H33     H    0.56290   0.54059   0.59591   1.000
    H34     H    0.33622   0.47986   0.52952   1.000
    H35     H    0.83620   0.47987   0.52951   1.000
    H36     H    0.03715   0.31621   0.53549   1.000
    H37     H    0.53717   0.31619   0.53547   1.000
    H38     H    0.29013   0.41542   0.32536   1.000
    H39     H    0.79005   0.41543   0.32500   1.000
    H40     H    0.19438   0.04605   0.40200   1.000
    H41     H    0.69440   0.04606   0.40202   1.000
    H42     H    0.41791   0.97610   0.47060   1.000
    H43     H    0.91796   0.97615   0.47059   1.000
    H44     H    0.21315   0.82139   0.46326   1.000
    H45     H    0.71326   0.82137   0.46322   1.000
    H46     H    0.46197   0.91264   0.67508   1.000
    H47     H    0.96196   0.91275   0.67540   1.000
    H48     H    0.43985   0.46435   0.09535   1.000
    H49     H    0.93950   0.46412   0.09528   1.000
    H50     H    0.16728   0.52071   0.02975   1.000
    H51     H    0.66748   0.52077   0.02954   1.000
    H52     H    0.46969   0.68814   0.03526   1.000
    H53     H    0.96945   0.68805   0.03539   1.000
    H54     H    0.21495   0.58378   0.82428   1.000
    H55     H    0.71359   0.58296   0.82419   1.000
    H56     H    0.30788   0.95495   0.90300   1.000
    H57     H    0.80839   0.95526   0.90258   1.000
    H58     H    0.08361   0.02476   0.97015   1.000
    H59     H    0.58382   0.02425   0.96958   1.000
    H60     H    0.28811   0.17980   0.96426   1.000
    H61     H    0.78830   0.17948   0.96460   1.000
    H62     H    0.04242   0.08918   0.17384   1.000
    H63     H    0.54240   0.08922   0.17380   1.000
    H64     H    0.06137   0.75461   0.75111   1.000
    H65     H    0.56091   0.75436   0.75084   1.000
    H66     H    0.19079   0.25833   0.24998   1.000
    H67     H    0.69077   0.25834   0.24997   1.000
    H68     H    0.44181   0.24573   0.24999   1.000
    H69     H    0.94176   0.24577   0.25002   1.000
    H70     H    0.31189   0.74485   0.75037   1.000
    H71     H    0.81249   0.74348   0.74983   1.000
    C72     C    0.47948   0.50584   0.42248   1.000
    C73     C    0.97957   0.50589   0.42252   1.000
    C74     C    0.05869   0.48389   0.43483   1.000
    C75     C    0.55861   0.48388   0.43400   1.000
    C76     C    0.10625   0.53877   0.45960   1.000
    C77     C    0.60615   0.53879   0.45962   1.000
    C78     C    0.07260   0.61267   0.47184   1.000
    C79     C    0.57247   0.61269   0.47178   1.000
    C80     C    0.49362   0.62960   0.45600   1.000
    C81     C    0.99376   0.62963   0.45635   1.000
    C82     C    0.11754   0.66947   0.50336   1.000
    C83     C    0.61744   0.66951   0.50326   1.000
    C84     C    0.86388   0.83189   0.50230   1.000
    C85     C    0.34286   0.10131   0.42362   1.000
    C86     C    0.84288   0.10133   0.42363   1.000
    C87     C    0.43893   0.88675   0.70886   1.000
    C88     C    0.08960   0.40225   0.42403   1.000
    C89     C    0.58956   0.40224   0.42401   1.000
    C90     C    0.18998   0.61336   0.70680   1.000
    C91     C    0.68951   0.61298   0.70677   1.000
    C92     C    0.13393   0.67631   0.70579   1.000
    C93     C    0.63358   0.67602   0.70563   1.000
    C94     C    0.10679   0.71156   0.65855   1.000
    C95     C    0.60668   0.71147   0.65842   1.000
    C96     C    0.27222   0.00215   0.57928   1.000
    C97     C    0.77217   0.00214   0.57928   1.000
    C98     C    0.19297   0.98332   0.56619   1.000
    C99     C    0.69292   0.98331   0.56618   1.000
    C100    C    0.14719   0.04018   0.54104   1.000
    C101    C    0.64714   0.04019   0.54104   1.000
    C102    C    0.18285   0.11261   0.52924   1.000
    C103    C    0.68281   0.11261   0.52924   1.000
    C104    C    0.26186   0.12606   0.54512   1.000
    C105    C    0.76181   0.12606   0.54514   1.000
    C106    C    0.13996   0.17177   0.49775   1.000
    C107    C    0.63994   0.17177   0.49770   1.000
    C108    C    0.16105   0.90250   0.57644   1.000
    C109    C    0.66100   0.90249   0.57642   1.000
    C110    C    0.06539   0.11525   0.29174   1.000
    C111    C    0.56537   0.11526   0.29170   1.000
    C112    C    0.11992   0.17831   0.29395   1.000
    C113    C    0.61989   0.17832   0.29393   1.000
    C114    C    0.14655   0.21211   0.34167   1.000
    C115    C    0.64653   0.21211   0.34165   1.000
    N116    N    0.44737   0.57776   0.43194   1.000
    N117    N    0.94750   0.57783   0.43197   1.000
    N118    N    0.30629   0.07247   0.56997   1.000
    N119    N    0.80624   0.07247   0.56998   1.000
    N120    N    0.05424   0.42178   0.93274   1.000
    C121    C    0.02293   0.49414   0.92355   1.000
    C122    C    0.52274   0.49465   0.92347   1.000
    C123    C    0.44373   0.51716   0.93551   1.000
    C124    C    0.94392   0.51673   0.93554   1.000
    C125    C    0.39559   0.46238   0.95978   1.000
    C126    C    0.89569   0.46201   0.95979   1.000
    C127    C    0.42858   0.38807   0.97170   1.000
    C128    C    0.92860   0.38768   0.97175   1.000
    C129    C    0.00737   0.37018   0.95658   1.000
    C130    C    0.50735   0.37067   0.95650   1.000
    C131    C    0.38312   0.33129   0.00274   1.000
    C132    C    0.88306   0.33099   0.00279   1.000
    C133    C    0.41369   0.59923   0.92501   1.000
    C134    C    0.91406   0.59887   0.92505   1.000
    C135    C    0.31344   0.38876   0.20760   1.000
    C136    C    0.81331   0.38874   0.20763   1.000
    C137    C    0.36928   0.32569   0.20569   1.000
    C138    C    0.86917   0.32570   0.20573   1.000
    C139    C    0.39612   0.29156   0.15809   1.000
    C140    C    0.89602   0.29152   0.15815   1.000
    C141    C    0.23127   0.99980   0.07909   1.000
    C142    C    0.73085   0.00000   0.07913   1.000
    C143    C    0.31061   0.01903   0.06670   1.000
    C144    C    0.81030   0.01871   0.06676   1.000
    C145    C    0.35716   0.96236   0.04206   1.000
    C146    C    0.85646   0.96167   0.04205   1.000
    C147    C    0.32214   0.88974   0.02980   1.000
    C148    C    0.82087   0.88931   0.02980   1.000
    C149    C    0.24299   0.87582   0.04000   1.000
    C150    C    0.74158   0.87603   0.04506   1.000
    C151    C    0.36597   0.83098   0.99857   1.000
    C152    C    0.86389   0.82986   0.99869   1.000
    C153    C    0.34206   0.10002   0.07724   1.000
    C154    C    0.84238   0.09943   0.07723   1.000
    C155    C    0.43915   0.88633   0.79283   1.000
    C156    C    0.93926   0.88477   0.79303   1.000
    C157    C    0.38373   0.82403   0.79470   1.000
    C158    C    0.88414   0.82220   0.79460   1.000
    C159    C    0.35707   0.79078   0.84250   1.000
    C160    C    0.85701   0.78808   0.84195   1.000
    C161    C    0.02410   0.49775   0.57750   1.000
    C162    C    0.52414   0.49773   0.57757   1.000
    C163    C    0.44499   0.51970   0.56530   1.000
    C164    C    0.94497   0.51973   0.56529   1.000
    C165    C    0.39741   0.46475   0.54054   1.000
    C166    C    0.89739   0.46477   0.54054   1.000
    C167    C    0.43109   0.39086   0.52838   1.000
    C168    C    0.93107   0.39087   0.52839   1.000
    C169    C    0.00994   0.37397   0.54381   1.000
    C170    C    0.50997   0.37395   0.54379   1.000
    C171    C    0.38592   0.33406   0.49701   1.000
    C172    C    0.88591   0.33406   0.49700   1.000
    C173    C    0.41407   0.60137   0.57606   1.000
    C174    C    0.91405   0.60140   0.57604   1.000
    C175    C    0.31354   0.38933   0.29155   1.000
    C176    C    0.81345   0.38934   0.29159   1.000
    C177    C    0.36941   0.32629   0.29383   1.000
    C178    C    0.86935   0.32632   0.29387   1.000
    C179    C    0.39618   0.29284   0.34168   1.000
    C180    C    0.89616   0.29287   0.34171   1.000
    C181    C    0.23161   0.00000   0.42081   1.000
    C182    C    0.73165   0.00000   0.42082   1.000
    C183    C    0.31085   0.02052   0.43392   1.000
    C184    C    0.81088   0.02055   0.43393   1.000
    C185    C    0.35663   0.96362   0.45907   1.000
    C186    C    0.85668   0.96366   0.45907   1.000
    C187    C    0.32099   0.89117   0.47084   1.000
    C188    C    0.82107   0.89119   0.47083   1.000
    C189    C    0.24199   0.87774   0.45490   1.000
    C190    C    0.74207   0.87774   0.45490   1.000
    C191    C    0.36379   0.83188   0.50232   1.000
    C192    C    0.93901   0.88632   0.70900   1.000
    C193    C    0.38373   0.82429   0.70653   1.000
    C194    C    0.88400   0.82374   0.70641   1.000
    C195    C    0.35699   0.79101   0.65867   1.000
    C196    C    0.85710   0.79089   0.65849   1.000
    C197    C    0.47938   0.50647   0.07710   1.000
    C198    C    0.97906   0.50628   0.07716   1.000
    C199    C    0.05781   0.48289   0.06514   1.000
    C200    C    0.55811   0.48305   0.06510   1.000
    C201    C    0.10637   0.53691   0.04059   1.000
    C202    C    0.60661   0.53701   0.04044   1.000
    C203    C    0.07403   0.61133   0.02833   1.000
    C204    C    0.57426   0.61143   0.02818   1.000
    C205    C    0.49581   0.62987   0.04349   1.000
    C206    C    0.99554   0.62975   0.04359   1.000
    C207    C    0.12035   0.66684   0.99701   1.000
    C208    C    0.62047   0.66688   0.99671   1.000
    C209    C    0.08730   0.40072   0.07586   1.000
    C210    C    0.58752   0.40086   0.07584   1.000
    C211    C    0.19091   0.61046   0.79077   1.000
    C212    C    0.68986   0.60982   0.79066   1.000
    C213    C    0.13462   0.67305   0.79380   1.000
    C214    C    0.63373   0.67256   0.79370   1.000
    C215    C    0.10884   0.70477   0.84238   1.000
    C216    C    0.60785   0.70449   0.84211   1.000
    C217    C    0.27037   0.99928   0.92165   1.000
    C218    C    0.77082   0.99938   0.92130   1.000
    C219    C    0.19103   0.98049   0.93417   1.000
    C220    C    0.69144   0.98038   0.93360   1.000
    C221    C    0.14496   0.03735   0.95907   1.000
    C222    C    0.64523   0.03700   0.95866   1.000
    C223    C    0.18033   0.10981   0.97116   1.000
    C224    C    0.68048   0.10942   0.97106   1.000
    C225    C    0.25944   0.12337   0.95574   1.000
    C226    C    0.75969   0.12311   0.95584   1.000
    C227    C    0.13699   0.16888   0.00245   1.000
    C228    C    0.63706   0.16851   0.00237   1.000
    C229    C    0.15850   0.90002   0.92362   1.000
    C230    C    0.65914   0.89993   0.92252   1.000
    C231    C    0.06531   0.11519   0.20775   1.000
    C232    C    0.56530   0.11522   0.20771   1.000
    C233    C    0.11979   0.17826   0.20577   1.000
    C234    C    0.61978   0.17828   0.20574   1.000
    C235    C    0.14643   0.21209   0.15824   1.000
    C236    C    0.64650   0.21210   0.15823   1.000
    C237    C    0.10496   0.70592   0.75035   1.000
    C238    C    0.60440   0.70558   0.75014   1.000
    C239    C    0.14833   0.20955   0.24992   1.000
    C240    C    0.64831   0.20957   0.24989   1.000
    C241    C    0.39843   0.29461   0.24986   1.000
    C242    C    0.89837   0.29465   0.24989   1.000
    C243    C    0.35493   0.79315   0.75054   1.000
    C244    C    0.85538   0.79189   0.75023   1.000
    N245    N    0.55414   0.42233   0.93264   1.000
    N246    N    0.19783   0.92920   0.06945   1.000
    N247    N    0.69685   0.92973   0.06953   1.000
    N248    N    0.05621   0.42583   0.56810   1.000
    N249    N    0.55624   0.42581   0.56811   1.000
    N250    N    0.19756   0.93135   0.43000   1.000
    N251    N    0.69762   0.93134   0.43008   1.000
    N252    N    0.44865   0.57898   0.06772   1.000
    N253    N    0.94834   0.57880   0.06774   1.000
    N254    N    0.30421   0.06972   0.93123   1.000
    N255    N    0.80461   0.06972   0.93120   1.000
    N256    N    0.21799   0.58009   0.74831   1.000
    N257    N    0.71713   0.57950   0.74824   1.000
    N258    N    0.03868   0.08330   0.24969   1.000
    N259    N    0.53866   0.08333   0.24965   1.000
    N260    N    0.28613   0.42099   0.24948   1.000
    N261    N    0.78601   0.42097   0.24952   1.000
    N262    N    0.46613   0.91812   0.75095   1.000
    N263    N    0.96611   0.91720   0.75130   1.000
    O264    O    0.04835   0.76056   0.65819   1.000
    O265    O    0.54833   0.76060   0.65811   1.000
    O266    O    0.14217   0.69066   0.61842   1.000
    O267    O    0.64209   0.69064   0.61829   1.000
    O268    O    0.08357   0.73571   0.51510   1.000
    O269    O    0.58349   0.73574   0.51508   1.000
    O270    O    0.18726   0.64970   0.51830   1.000
    O271    O    0.68721   0.64975   0.51813   1.000
    O272    O    0.03821   0.34718   0.41898   1.000
    O273    O    0.53820   0.34716   0.41897   1.000
    O274    O    0.16529   0.39143   0.42121   1.000
    O275    O    0.66526   0.39144   0.42121   1.000
    O276    O    0.20464   0.26035   0.34230   1.000
    O277    O    0.70463   0.26034   0.34228   1.000
    O278    O    0.11113   0.19089   0.38154   1.000
    O279    O    0.61113   0.19088   0.38152   1.000
    O280    O    0.17659   0.23544   0.48561   1.000
    O281    O    0.67657   0.23544   0.48561   1.000
    O282    O    0.06908   0.15633   0.48346   1.000
    O283    O    0.56906   0.15634   0.48345   1.000
    O284    O    0.21220   0.84669   0.58319   1.000
    O285    O    0.71217   0.84669   0.58316   1.000
    O286    O    0.08527   0.89267   0.57722   1.000
    O287    O    0.58522   0.89265   0.57721   1.000
    O288    O    0.45492   0.24294   0.15750   1.000
    O289    O    0.95478   0.24283   0.15762   1.000
    O290    O    0.36017   0.31279   0.11815   1.000
    O291    O    0.86014   0.31274   0.11819   1.000
    O292    O    0.41706   0.26528   0.01508   1.000
    O293    O    0.91688   0.26491   0.01516   1.000
    O294    O    0.31293   0.35071   0.01680   1.000
    O295    O    0.81291   0.35058   0.01683   1.000
    O296    O    0.46566   0.65383   0.92077   1.000
    O297    O    0.96622   0.65334   0.92094   1.000
    O298    O    0.33819   0.61089   0.92162   1.000
    O299    O    0.83863   0.61074   0.92155   1.000
    O300    O    0.29887   0.74281   0.84337   1.000
    O301    O    0.79894   0.73994   0.84209   1.000
    O302    O    0.39298   0.81242   0.88232   1.000
    O303    O    0.89206   0.80911   0.88224   1.000
    O304    O    0.32974   0.76748   0.98544   1.000
    O305    O    0.82645   0.76712   0.98564   1.000
    O306    O    0.43726   0.84653   0.98533   1.000
    O307    O    0.93552   0.84397   0.98545   1.000
    O308    O    0.29076   0.15587   0.08320   1.000
    O309    O    0.79154   0.15577   0.08326   1.000
    O310    O    0.41779   0.10995   0.07870   1.000
    O311    O    0.91822   0.10860   0.07881   1.000
    O312    O    0.45421   0.24332   0.34272   1.000
    O313    O    0.95420   0.24337   0.34275   1.000
    O314    O    0.36073   0.31569   0.38137   1.000
    O315    O    0.86070   0.31571   0.38140   1.000
    O316    O    0.41988   0.26802   0.48470   1.000
    O317    O    0.91989   0.26803   0.48400   1.000
    O318    O    0.31585   0.35363   0.48263   1.000
    O319    O    0.81584   0.35362   0.48264   1.000
    O320    O    0.46548   0.65643   0.58100   1.000
    O321    O    0.96547   0.65644   0.58108   1.000
    O322    O    0.33840   0.61224   0.57885   1.000
    O323    O    0.83837   0.61230   0.57870   1.000
    O324    O    0.29873   0.74296   0.65796   1.000
    O325    O    0.79877   0.74292   0.65772   1.000
    O326    O    0.39231   0.81239   0.61877   1.000
    O327    O    0.89240   0.81248   0.61865   1.000
    O328    O    0.32698   0.76822   0.51433   1.000
    O329    O    0.82705   0.76823   0.51429   1.000
    O330    O    0.43463   0.84714   0.51674   1.000
    O331    O    0.93472   0.84712   0.51672   1.000
    O332    O    0.29184   0.15725   0.41679   1.000
    O333    O    0.79185   0.15727   0.41600   1.000
    O334    O    0.41868   0.11093   0.42289   1.000
    O335    O    0.91869   0.11095   0.42288   1.000
    O336    O    0.05058   0.75396   0.84449   1.000
    O337    O    0.54939   0.75344   0.84412   1.000
    O338    O    0.14607   0.68077   0.88120   1.000
    O339    O    0.64535   0.68095   0.88097   1.000
    O340    O    0.08734   0.73286   0.98362   1.000
    O341    O    0.58741   0.73298   0.98348   1.000
    O342    O    0.19057   0.64649   0.98362   1.000
    O343    O    0.69050   0.64636   0.98311   1.000
    O344    O    0.03489   0.34663   0.08055   1.000
    O345    O    0.53500   0.34687   0.08060   1.000
    O346    O    0.16282   0.38865   0.07891   1.000
    O347    O    0.66301   0.38861   0.07885   1.000
    O348    O    0.20467   0.26012   0.15793   1.000
    O349    O    0.70475   0.26012   0.15795   1.000
    O350    O    0.11111   0.19115   0.11808   1.000
    O351    O    0.61128   0.19116   0.11802   1.000
    O352    O    0.17331   0.23283   0.01450   1.000
    O353    O    0.67338   0.23248   0.01453   1.000
    O354    O    0.06623   0.15314   0.01663   1.000
    O355    O    0.56627   0.15289   0.01650   1.000
    O356    O    0.20872   0.84342   0.91677   1.000
    O357    O    0.70948   0.84354   0.91531   1.000
    O358    O    0.08255   0.89130   0.92277   1.000
    O359    O    0.58321   0.89107   0.92156   1.000
loop_
    _geom_bond_atom_site_label_1
    _geom_bond_atom_site_label_2
    _geom_bond_distance
    _geom_bond_site_symmetry_2
    _ccdc_geom_bond_type
    C228   O353      1.28222      .   S
    C228   O355      1.27083      .   S
    C228   C224      1.49142  1_554   S
    C227   O352      1.28116      .   S
    C227   O354      1.27121      .   S
    C227   C223      1.49035  1_554   S
    C131   O292      1.28503      .   S
    C131   O294      1.26990      .   S
    C131   C127      1.49025  1_554   S
    C132   O293      1.28533      .   S
    C132   O295      1.26984      .   S
    C132   C128      1.48994  1_554   S
    C204   C202      1.39774      .   S
    C204   C205      1.40356      .   S
    C204   C208      1.48909  1_554   S
    C203   C201      1.39770      .   S
    C203   C206      1.40357  1_455   S
    C203   C207      1.48842  1_554   S
    H51    C202      1.08873      .   S
    H50    C201      1.08871      .   S
    C148   C146      1.39852      .   S
    C148   C150      1.40495      .   S
    C148   C152      1.48930  1_554   S
    C147   C149      1.36978      .   S
    C147   C145      1.39837      .   S
    C147   C151      1.48992  1_554   S
    H26    C145      1.08881      .   S
    H27    C146      1.08886      .   S
    H52    C205      1.09113      .   S
    H53    C206      1.09120      .   S
    H28    C149      1.07053      .   S
    H29    C150      1.09111      .   S
    C149   N246      1.41525      .   S
    C202   C200      1.39518      .   S
    C201   C199      1.39501      .   S
    C146   C144      1.39639  1_565   S
    C145   C143      1.39475  1_565   S
    C205   N252      1.34284      .   S
    C206   N253      1.34275      .   S
    C150   N247      1.34241      .   S
    C200   C210      1.49054      .   S
    C200   C197      1.40383      .   S
    C199   C209      1.49051      .   S
    C199   C198      1.40412  1_455   S
    C143   C153      1.49147      .   S
    C143   C141      1.40518  1_545   S
    C144   C154      1.49086      .   S
    C144   C142      1.40470      .   S
    N252   C197      1.34185      .   S
    N253   C198      1.34231      .   S
    N246   C141      1.34187      .   S
    N247   C142      1.34063  1_565   S
    C210   O347      1.27357      .   S
    C210   O345      1.27387      .   S
    C209   O346      1.27373      .   S
    C209   O344      1.27364      .   S
    C197   H48       1.09295      .   S
    C198   H49       1.09219      .   S
    C154   O311      1.27392      .   S
    C154   O309      1.27439      .   S
    C153   O310      1.27375      .   S
    C153   O308      1.27335      .   S
    C141   H24       1.09211  1_565   S
    C142   H25       1.09309      .   S
    O351   C236      1.29188      .   S
    O350   C235      1.29153      .   S
    O290   C139      1.28989      .   S
    O291   C140      1.28970      .   S
    O288   C139      1.26888      .   S
    O289   C140      1.26905      .   S
    O348   C235      1.26837      .   S
    O349   C236      1.26835      .   S
    C139   C137      1.48620      .   S
    C140   C138      1.48603      .   S
    C236   C234      1.48617      .   S
    C235   C233      1.48639      .   S
    H22    C135      1.09142      .   S
    H23    C136      1.09142      .   S
    H63    C232      1.09150      .   S
    H62    C231      1.09156      .   S
    C137   C135      1.40390      .   S
    C137   C241      1.39689      .   S
    C138   C136      1.40387      .   S
    C138   C242      1.39672      .   S
    C234   C232      1.40375      .   S
    C234   C240      1.39685      .   S
    C233   C231      1.40375      .   S
    C233   C239      1.39695      .   S
    C135   N260      1.34165      .   S
    C136   N261      1.34181      .   S
    C232   N259      1.34186      .   S
    C231   N258      1.34181      .   S
    N260   C175      1.34173      .   S
    N261   C176      1.34177      .   S
    N259   C111      1.34191      .   S
    N258   C110      1.34202      .   S
    C241   H68       1.08842      .   S
    C241   C177      1.39650      .   S
    C242   H69       1.08841      .   S
    C242   C178      1.39664      .   S
    C240   H67       1.08837      .   S
    C240   C113      1.39676      .   S
    C239   H66       1.08838      .   S
    C239   C112      1.39648      .   S
    C175   C177      1.40416      .   S
    C175   H38       1.09143      .   S
    C176   C178      1.40420      .   S
    C176   H39       1.08222      .   S
    C111   C113      1.40405      .   S
    C111   H15       1.09153      .   S
    C110   C112      1.40402      .   S
    C110   H14       1.09142      .   S
    C177   C179      1.48653      .   S
    C178   C180      1.48642      .   S
    C113   C115      1.48726      .   S
    C112   C114      1.48731      .   S
    C115   O277      1.26872      .   S
    C115   O279      1.29032      .   S
    C114   O276      1.26872      .   S
    C114   O278      1.29033      .   S
    C179   O312      1.26894      .   S
    C179   O314      1.29013      .   S
    C180   O313      1.26894      .   S
    C180   O315      1.29008      .   S
    H40    C181      1.11168      .   S
    H41    C182      1.11177      .   S
    H0     C72       1.09214      .   S
    H1     C73       1.09228      .   S
    O333   C86       1.27759      .   S
    O332   C85       1.27426      .   S
    O273   C89       1.27414      .   S
    O272   C88       1.27418      .   S
    C181   N250      1.31599  1_545   S
    C181   C183      1.41175      .   S
    C182   N251      1.31632  1_545   S
    C182   C184      1.41174      .   S
    O275   C89       1.27357      .   S
    O274   C88       1.27359      .   S
    C72    N116      1.34222      .   S
    C72    C75       1.39926      .   S
    C73    N117      1.34216      .   S
    C73    C74       1.40407  1_655   S
    O335   C86       1.27416      .   S
    O334   C85       1.27416      .   S
    C85    C183      1.49161      .   S
    C86    C184      1.49156      .   S
    C89    C75       1.48634      .   S
    C88    C74       1.49043      .   S
    N250   C189      1.34359      .   S
    N251   C190      1.34262      .   S
    N116   C80       1.33878      .   S
    N117   C81       1.34280      .   S
    C183   C185      1.39627  1_545   S
    C184   C186      1.39629  1_545   S
    C75    C77       1.40616      .   S
    C74    C76       1.39465      .   S
    C190   H45       1.09117      .   S
    C190   C188      1.40412      .   S
    C189   H44       1.09129      .   S
    C189   C187      1.40422      .   S
    C80    H4        1.09286      .   S
    C80    C79       1.40643      .   S
    C81    H5        1.09111      .   S
    C81    C78       1.40388  1_655   S
    C185   H42       1.08890      .   S
    C185   C187      1.39865      .   S
    C186   H43       1.08886      .   S
    C186   C188      1.39861      .   S
    C76    H2        1.08933      .   S
    C76    C78       1.39817      .   S
    C77    H3        1.08872      .   S
    C77    C79       1.39770      .   S
    C188   C84       1.49060      .   S
    C187   C191      1.49055      .   S
    C79    C83       1.48965      .   S
    C78    C82       1.48984      .   S
    O318   C171      1.26955      .   S
    O319   C172      1.26940      .   S
    O283   C107      1.27031      .   S
    O282   C106      1.27068      .   S
    O317   C172      1.29055      .   S
    O316   C171      1.28555      .   S
    O280   C106      1.28186      .   S
    O281   C107      1.28154      .   S
    C172   C168      1.48969      .   S
    C171   C167      1.48932      .   S
    C107   C103      1.49071      .   S
    C106   C102      1.48991      .   S
    C84    O329      1.28222      .   S
    C84    O331      1.27041      .   S
    C191   O328      1.28224      .   S
    C191   O330      1.27050      .   S
    C83    O269      1.28462      .   S
    C83    O271      1.27012      .   S
    C82    O268      1.28444      .   S
    C82    O270      1.26999      .   S
    C167   C165      1.39778      .   S
    C167   C170      1.40376      .   S
    C168   C166      1.39779      .   S
    C168   C169      1.40371  1_655   S
    C103   C101      1.39857      .   S
    C103   C105      1.40392      .   S
    C102   C100      1.39865      .   S
    C102   C104      1.40390      .   S
    H35    C166      1.08875      .   S
    H34    C165      1.08875      .   S
    H11    C101      1.08883      .   S
    H10    C100      1.08886      .   S
    H37    C170      1.09116      .   S
    H36    C169      1.09120      .   S
    H12    C104      1.09118      .   S
    H13    C105      1.09119      .   S
    C166   C164      1.39540      .   S
    C165   C163      1.39543      .   S
    C101   C99       1.39591  1_545   S
    C100   C98       1.39587  1_545   S
    C170   N249      1.34278      .   S
    C169   N248      1.34237      .   S
    C104   N118      1.34264      .   S
    C105   N119      1.34253      .   S
    C164   C174      1.49066      .   S
    C164   C161      1.40360  1_655   S
    C163   C173      1.49060      .   S
    C163   C162      1.40420      .   S
    C99    C109      1.49135      .   S
    C99    C97       1.40486  1_565   S
    C98    C108      1.49136      .   S
    C98    C96       1.40487  1_565   S
    N248   C161      1.34185      .   S
    N249   C162      1.34211      .   S
    N118   C96       1.34169      .   S
    N119   C97       1.34170      .   S
    C174   O323      1.27322      .   S
    C174   O321      1.27419      .   S
    C173   O322      1.27336      .   S
    C173   O320      1.27401      .   S
    C109   O287      1.27418      .   S
    C109   O285      1.27367      .   S
    C108   O286      1.27415      .   S
    C108   O284      1.27365      .   S
    C161   H32       1.09323      .   S
    C162   H33       1.09216      .   S
    C97    H9        1.09209  1_545   S
    C96    H8        1.09213  1_545   S
    O267   C95       1.29048      .   S
    O266   C94       1.29051      .   S
    O327   C196      1.29048      .   S
    O326   C195      1.29105      .   S
    O325   C196      1.26887      .   S
    O324   C195      1.26887      .   S
    O265   C95       1.26839      .   S
    O264   C94       1.26832      .   S
    C95    C93       1.48498      .   S
    C196   C194      1.48731      .   S
    C94    C92       1.48548      .   S
    C195   C193      1.48785      .   S
    H7     C91       1.09144      .   S
    H6     C90       1.08961      .   S
    H46    C87       1.09133      .   S
    H47    C192      1.09038      .   S
    C93    C91       1.40394      .   S
    C93    C238      1.39711      .   S
    C92    C90       1.40402      .   S
    C92    C237      1.39736      .   S
    C194   C192      1.40384      .   S
    C194   C244      1.39663      .   S
    C193   C87       1.40391      .   S
    C193   C243      1.39765      .   S
    C91    N257      1.34142      .   S
    C90    N256      1.34305      .   S
    C87    N262      1.34181      .   S
    C192   N263      1.34289      .   S
    N257   C212      1.34157      .   S
    N256   C211      1.34171      .   S
    H71    C244      1.08842      .   S
    C238   H65       1.08850      .   S
    C238   C214      1.39621      .   S
    C244   C158      1.39721      .   S
    C237   H64       1.08853      .   S
    C237   C213      1.39456      .   S
    H70    C243      1.08853      .   S
    C243   C157      1.39614      .   S
    N262   C155      1.34169      .   S
    N263   C156      1.34195      .   S
    C212   C214      1.40446      .   S
    C212   H55       1.09120      .   S
    C211   C213      1.40433      .   S
    C211   H54       1.09130      .   S
    C155   C157      1.40419      .   S
    C155   H30       1.09141      .   S
    C156   C158      1.40389      .   S
    C156   H31       1.09157      .   S
    C214   C216      1.48725      .   S
    C213   C215      1.48966      .   S
    C158   C160      1.48650      .   S
    C157   C159      1.48919      .   S
    C160   O301      1.26721      .   S
    C160   O303      1.29286      .   S
    C216   O337      1.26921      .   S
    C216   O339      1.28859      .   S
    C215   O336      1.26942      .   S
    C215   O338      1.28800      .   S
    C159   O300      1.26728      .   S
    C159   O302      1.29151      .   S
    H57    C218      1.09229      .   S
    H56    C217      1.09317      .   S
    H17    C122      1.09281      .   S
    H16    C121      1.09224      .   S
    O357   C230      1.27425      .   S
    O356   C229      1.27411      .   S
    O296   C133      1.27366      .   S
    O297   C134      1.27387      .   S
    C218   N255      1.34181  1_565   S
    C218   C220      1.40417      .   S
    O299   C134      1.27258      .   S
    O359   C230      1.27442      .   S
    O298   C133      1.27301      .   S
    C217   N254      1.34205  1_565   S
    C217   C219      1.40424      .   S
    C230   C220      1.49126      .   S
    O358   C229      1.27436      .   S
    C122   N245      1.34225      .   S
    C122   C123      1.40419      .   S
    C121   N120      1.34224      .   S
    C121   C124      1.40425  1_455   S
    C229   C219      1.49004      .   S
    C133   C123      1.49077      .   S
    C134   C124      1.49086      .   S
    N255   C226      1.34300      .   S
    N254   C225      1.34264      .   S
    N245   C130      1.34252      .   S
    N120   C129      1.34253      .   S
    C220   C222      1.39671  1_565   S
    C219   C221      1.39601  1_565   S
    C123   C125      1.39588      .   S
    C124   C126      1.39575      .   S
    C225   H60       1.09119      .   S
    C225   C223      1.40439      .   S
    C226   H61       1.09114      .   S
    C226   C224      1.40453      .   S
    C130   H21       1.09118      .   S
    C130   C127      1.40399      .   S
    C129   H20       1.09113      .   S
    C129   C128      1.40392  1_455   S
    C222   H59       1.08886      .   S
    C222   C224      1.39815      .   S
    C221   H58       1.08871      .   S
    C221   C223      1.39746      .   S
    C125   H18       1.08888      .   S
    C125   C127      1.39790      .   S
    C126   H19       1.08888      .   S
    C126   C128      1.39809      .   S
    O343   C208      1.26845      .   S
    O341   C208      1.28661      .   S
    O342   C207      1.26898      .   S
    O340   C207      1.28636      .   S
    O306   C151      1.27121      .   S
    O304   C151      1.28193      .   S
    O307   C152      1.27155      .   S
    O305   C152      1.28037      .   S
