# CIF file generated by openbabel 2.4.90, see http://openbabel.sf.net
data_I
_chemical_name_common ''
_cell_length_a 16.645
_cell_length_b 16.816
_cell_length_c 27.26
_cell_angle_alpha 90.069
_cell_angle_beta 90.16
_cell_angle_gamma 89.401
_space_group_name_H-M_alt 'P 1'
_space_group_name_Hall 'P 1'
loop_
    _symmetry_equiv_pos_as_xyz
    x,y,z
loop_
    _atom_site_label
    _atom_site_type_symbol
    _atom_site_fract_x
    _atom_site_fract_y
    _atom_site_fract_z
    _atom_site_occupancy
    Y0      Y    0.00000   0.78276   0.57662   1.000
    Y1      Y    0.24731   0.28356   0.42321   1.000
    Y2      Y    0.74728   0.28357   0.42322   1.000
    Y3      Y    0.99477   0.21940   0.07638   1.000
    Y4      Y    0.49506   0.21973   0.07624   1.000
    Y5      Y    0.25624   0.71836   0.92399   1.000
    Y6      Y    0.75617   0.71795   0.92312   1.000
    Y7      Y    0.99641   0.22078   0.42374   1.000
    Y8      Y    0.49639   0.22076   0.42372   1.000
    Y9      Y    0.25665   0.72046   0.57694   1.000
    Y10     Y    0.75653   0.72044   0.57678   1.000
    Y11     Y    0.50666   0.78064   0.92446   1.000
    Y12     Y    0.00000   0.78026   0.92464   1.000
    Y13     Y    0.24532   0.28146   0.07664   1.000
    Y14     Y    0.74534   0.28114   0.07663   1.000
    H15     H    0.44073   0.46297   0.40413   1.000
    H16     H    0.94081   0.46304   0.40415   1.000
    H17     H    0.16741   0.52361   0.47073   1.000
    H18     H    0.66733   0.52367   0.47066   1.000
    H19     H    0.46641   0.68736   0.46461   1.000
    H20     H    0.96658   0.68740   0.46466   1.000
    H21     H    0.21307   0.58869   0.67259   1.000
    H22     H    0.71282   0.58840   0.67251   1.000
    H23     H    0.30946   0.95779   0.59809   1.000
    H24     H    0.80940   0.95778   0.59808   1.000
    H25     H    0.08590   0.02771   0.52953   1.000
    H26     H    0.58586   0.02772   0.52952   1.000
    H27     H    0.29069   0.18240   0.53674   1.000
    H28     H    0.79065   0.18240   0.53676   1.000
    H29     H    0.04253   0.08933   0.32556   1.000
    H30     H    0.54250   0.08933   0.32552   1.000
    H31     H    0.06222   0.53680   0.90565   1.000
    Y32     Y    0.50759   0.78277   0.57661   1.000
    H33     H    0.56195   0.53736   0.90550   1.000
    H34     H    0.33446   0.47791   0.97056   1.000
    H35     H    0.83456   0.47761   0.97054   1.000
    H36     H    0.03397   0.31207   0.96467   1.000
    H37     H    0.53403   0.31257   0.96456   1.000
    H38     H    0.28998   0.41443   0.17364   1.000
    H39     H    0.78982   0.41438   0.17367   1.000
    H40     H    0.19341   0.04400   0.09751   1.000
    H41     H    0.69337   0.04457   0.09758   1.000
    H42     H    0.41854   0.97518   0.03114   1.000
    H43     H    0.91794   0.97406   0.03114   1.000
    H44     H    0.21463   0.81926   0.03637   1.000
    H45     H    0.71281   0.81971   0.03641   1.000
    H46     H    0.46248   0.91180   0.82678   1.000
    H47     H    0.96245   0.90996   0.82710   1.000
    H48     H    0.06287   0.54061   0.59592   1.000
    H49     H    0.56290   0.54059   0.59591   1.000
    H50     H    0.33622   0.47986   0.52952   1.000
    H51     H    0.83620   0.47987   0.52951   1.000
    H52     H    0.03715   0.31621   0.53549   1.000
    H53     H    0.53717   0.31619   0.53547   1.000
    H54     H    0.29013   0.41542   0.32536   1.000
    H55     H    0.79005   0.41543   0.32500   1.000
    H56     H    0.19438   0.04605   0.40200   1.000
    H57     H    0.69440   0.04606   0.40202   1.000
    H58     H    0.41791   0.97610   0.47060   1.000
    H59     H    0.91796   0.97615   0.47059   1.000
    H60     H    0.21315   0.82139   0.46326   1.000
    H61     H    0.71326   0.82137   0.46322   1.000
    H62     H    0.46197   0.91264   0.67508   1.000
    H63     H    0.96196   0.91275   0.67540   1.000
    H64     H    0.43985   0.46435   0.09535   1.000
    H65     H    0.93950   0.46412   0.09528   1.000
    H66     H    0.16728   0.52071   0.02975   1.000
    H67     H    0.66748   0.52077   0.02954   1.000
    H68     H    0.46969   0.68814   0.03526   1.000
    H69     H    0.96945   0.68805   0.03539   1.000
    H70     H    0.21495   0.58378   0.82428   1.000
    H71     H    0.71359   0.58296   0.82419   1.000
    H72     H    0.30788   0.95495   0.90300   1.000
    H73     H    0.80839   0.95526   0.90258   1.000
    H74     H    0.08361   0.02476   0.97015   1.000
    H75     H    0.58382   0.02425   0.96958   1.000
    H76     H    0.28811   0.17980   0.96426   1.000
    H77     H    0.78830   0.17948   0.96460   1.000
    H78     H    0.04242   0.08918   0.17384   1.000
    H79     H    0.54240   0.08922   0.17380   1.000
    H80     H    0.06137   0.75461   0.75111   1.000
    H81     H    0.56091   0.75436   0.75084   1.000
    H82     H    0.19079   0.25833   0.24998   1.000
    H83     H    0.69077   0.25834   0.24997   1.000
    H84     H    0.44181   0.24573   0.24999   1.000
    H85     H    0.94176   0.24577   0.25002   1.000
    H86     H    0.31189   0.74485   0.75037   1.000
    H87     H    0.81249   0.74348   0.74983   1.000
    C88     C    0.47948   0.50584   0.42248   1.000
    C89     C    0.97957   0.50589   0.42252   1.000
    C90     C    0.05869   0.48389   0.43483   1.000
    C91     C    0.55861   0.48388   0.43400   1.000
    C92     C    0.10625   0.53877   0.45960   1.000
    C93     C    0.60615   0.53879   0.45962   1.000
    C94     C    0.07260   0.61267   0.47184   1.000
    C95     C    0.57247   0.61269   0.47178   1.000
    C96     C    0.49362   0.62960   0.45600   1.000
    C97     C    0.99376   0.62963   0.45635   1.000
    C98     C    0.11754   0.66947   0.50336   1.000
    C99     C    0.61744   0.66951   0.50326   1.000
    C100    C    0.86388   0.83189   0.50230   1.000
    C101    C    0.34286   0.10131   0.42362   1.000
    C102    C    0.84288   0.10133   0.42363   1.000
    C103    C    0.43893   0.88675   0.70886   1.000
    C104    C    0.08960   0.40225   0.42403   1.000
    C105    C    0.58956   0.40224   0.42401   1.000
    C106    C    0.18998   0.61336   0.70680   1.000
    C107    C    0.68951   0.61298   0.70677   1.000
    C108    C    0.13393   0.67631   0.70579   1.000
    C109    C    0.63358   0.67602   0.70563   1.000
    C110    C    0.10679   0.71156   0.65855   1.000
    C111    C    0.60668   0.71147   0.65842   1.000
    C112    C    0.27222   0.00215   0.57928   1.000
    C113    C    0.77217   0.00214   0.57928   1.000
    C114    C    0.19297   0.98332   0.56619   1.000
    C115    C    0.69292   0.98331   0.56618   1.000
    C116    C    0.14719   0.04018   0.54104   1.000
    C117    C    0.64714   0.04019   0.54104   1.000
    C118    C    0.18285   0.11261   0.52924   1.000
    C119    C    0.68281   0.11261   0.52924   1.000
    C120    C    0.26186   0.12606   0.54512   1.000
    C121    C    0.76181   0.12606   0.54514   1.000
    C122    C    0.13996   0.17177   0.49775   1.000
    C123    C    0.63994   0.17177   0.49770   1.000
    C124    C    0.16105   0.90250   0.57644   1.000
    C125    C    0.66100   0.90249   0.57642   1.000
    C126    C    0.06539   0.11525   0.29174   1.000
    C127    C    0.56537   0.11526   0.29170   1.000
    C128    C    0.11992   0.17831   0.29395   1.000
    C129    C    0.61989   0.17832   0.29393   1.000
    C130    C    0.14655   0.21211   0.34167   1.000
    C131    C    0.64653   0.21211   0.34165   1.000
    N132    N    0.44737   0.57776   0.43194   1.000
    N133    N    0.94750   0.57783   0.43197   1.000
    N134    N    0.30629   0.07247   0.56997   1.000
    N135    N    0.80624   0.07247   0.56998   1.000
    N136    N    0.05424   0.42178   0.93274   1.000
    C137    C    0.02293   0.49414   0.92355   1.000
    C138    C    0.52274   0.49465   0.92347   1.000
    C139    C    0.44373   0.51716   0.93551   1.000
    C140    C    0.94392   0.51673   0.93554   1.000
    C141    C    0.39559   0.46238   0.95978   1.000
    C142    C    0.89569   0.46201   0.95979   1.000
    C143    C    0.42858   0.38807   0.97170   1.000
    C144    C    0.92860   0.38768   0.97175   1.000
    C145    C    0.00737   0.37018   0.95658   1.000
    C146    C    0.50735   0.37067   0.95650   1.000
    C147    C    0.38312   0.33129   0.00274   1.000
    C148    C    0.88306   0.33099   0.00279   1.000
    C149    C    0.41369   0.59923   0.92501   1.000
    C150    C    0.91406   0.59887   0.92505   1.000
    C151    C    0.31344   0.38876   0.20760   1.000
    C152    C    0.81331   0.38874   0.20763   1.000
    C153    C    0.36928   0.32569   0.20569   1.000
    C154    C    0.86917   0.32570   0.20573   1.000
    C155    C    0.39612   0.29156   0.15809   1.000
    C156    C    0.89602   0.29152   0.15815   1.000
    C157    C    0.23127   0.99980   0.07909   1.000
    C158    C    0.73085   0.00000   0.07913   1.000
    C159    C    0.31061   0.01903   0.06670   1.000
    C160    C    0.81030   0.01871   0.06676   1.000
    C161    C    0.35716   0.96236   0.04206   1.000
    C162    C    0.85646   0.96167   0.04205   1.000
    C163    C    0.32214   0.88974   0.02980   1.000
    C164    C    0.82087   0.88931   0.02980   1.000
    C165    C    0.24299   0.87582   0.04000   1.000
    C166    C    0.74158   0.87603   0.04506   1.000
    C167    C    0.36597   0.83098   0.99857   1.000
    C168    C    0.86389   0.82986   0.99869   1.000
    C169    C    0.34206   0.10002   0.07724   1.000
    C170    C    0.84238   0.09943   0.07723   1.000
    C171    C    0.43915   0.88633   0.79283   1.000
    C172    C    0.93926   0.88477   0.79303   1.000
    C173    C    0.38373   0.82403   0.79470   1.000
    C174    C    0.88414   0.82220   0.79460   1.000
    C175    C    0.35707   0.79078   0.84250   1.000
    C176    C    0.85701   0.78808   0.84195   1.000
    C177    C    0.02410   0.49775   0.57750   1.000
    C178    C    0.52414   0.49773   0.57757   1.000
    C179    C    0.44499   0.51970   0.56530   1.000
    C180    C    0.94497   0.51973   0.56529   1.000
    C181    C    0.39741   0.46475   0.54054   1.000
    C182    C    0.89739   0.46477   0.54054   1.000
    C183    C    0.43109   0.39086   0.52838   1.000
    C184    C    0.93107   0.39087   0.52839   1.000
    C185    C    0.00994   0.37397   0.54381   1.000
    C186    C    0.50997   0.37395   0.54379   1.000
    C187    C    0.38592   0.33406   0.49701   1.000
    C188    C    0.88591   0.33406   0.49700   1.000
    C189    C    0.41407   0.60137   0.57606   1.000
    C190    C    0.91405   0.60140   0.57604   1.000
    C191    C    0.31354   0.38933   0.29155   1.000
    C192    C    0.81345   0.38934   0.29159   1.000
    C193    C    0.36941   0.32629   0.29383   1.000
    C194    C    0.86935   0.32632   0.29387   1.000
    C195    C    0.39618   0.29284   0.34168   1.000
    C196    C    0.89616   0.29287   0.34171   1.000
    C197    C    0.23161   0.00000   0.42081   1.000
    C198    C    0.73165   0.00000   0.42082   1.000
    C199    C    0.31085   0.02052   0.43392   1.000
    C200    C    0.81088   0.02055   0.43393   1.000
    C201    C    0.35663   0.96362   0.45907   1.000
    C202    C    0.85668   0.96366   0.45907   1.000
    C203    C    0.32099   0.89117   0.47084   1.000
    C204    C    0.82107   0.89119   0.47083   1.000
    C205    C    0.24199   0.87774   0.45490   1.000
    C206    C    0.74207   0.87774   0.45490   1.000
    C207    C    0.36379   0.83188   0.50232   1.000
    C208    C    0.93901   0.88632   0.70900   1.000
    C209    C    0.38373   0.82429   0.70653   1.000
    C210    C    0.88400   0.82374   0.70641   1.000
    C211    C    0.35699   0.79101   0.65867   1.000
    C212    C    0.85710   0.79089   0.65849   1.000
    C213    C    0.47938   0.50647   0.07710   1.000
    C214    C    0.97906   0.50628   0.07716   1.000
    C215    C    0.05781   0.48289   0.06514   1.000
    C216    C    0.55811   0.48305   0.06510   1.000
    C217    C    0.10637   0.53691   0.04059   1.000
    C218    C    0.60661   0.53701   0.04044   1.000
    C219    C    0.07403   0.61133   0.02833   1.000
    C220    C    0.57426   0.61143   0.02818   1.000
    C221    C    0.49581   0.62987   0.04349   1.000
    C222    C    0.99554   0.62975   0.04359   1.000
    C223    C    0.12035   0.66684   0.99701   1.000
    C224    C    0.62047   0.66688   0.99671   1.000
    C225    C    0.08730   0.40072   0.07586   1.000
    C226    C    0.58752   0.40086   0.07584   1.000
    C227    C    0.19091   0.61046   0.79077   1.000
    C228    C    0.68986   0.60982   0.79066   1.000
    C229    C    0.13462   0.67305   0.79380   1.000
    C230    C    0.63373   0.67256   0.79370   1.000
    C231    C    0.10884   0.70477   0.84238   1.000
    C232    C    0.60785   0.70449   0.84211   1.000
    C233    C    0.27037   0.99928   0.92165   1.000
    C234    C    0.77082   0.99938   0.92130   1.000
    C235    C    0.19103   0.98049   0.93417   1.000
    C236    C    0.69144   0.98038   0.93360   1.000
    C237    C    0.14496   0.03735   0.95907   1.000
    C238    C    0.64523   0.03700   0.95866   1.000
    C239    C    0.18033   0.10981   0.97116   1.000
    C240    C    0.68048   0.10942   0.97106   1.000
    C241    C    0.25944   0.12337   0.95574   1.000
    C242    C    0.75969   0.12311   0.95584   1.000
    C243    C    0.13699   0.16888   0.00245   1.000
    C244    C    0.63706   0.16851   0.00237   1.000
    C245    C    0.15850   0.90002   0.92362   1.000
    C246    C    0.65914   0.89993   0.92252   1.000
    C247    C    0.06531   0.11519   0.20775   1.000
    C248    C    0.56530   0.11522   0.20771   1.000
    C249    C    0.11979   0.17826   0.20577   1.000
    C250    C    0.61978   0.17828   0.20574   1.000
    C251    C    0.14643   0.21209   0.15824   1.000
    C252    C    0.64650   0.21210   0.15823   1.000
    C253    C    0.10496   0.70592   0.75035   1.000
    C254    C    0.60440   0.70558   0.75014   1.000
    C255    C    0.14833   0.20955   0.24992   1.000
    C256    C    0.64831   0.20957   0.24989   1.000
    C257    C    0.39843   0.29461   0.24986   1.000
    C258    C    0.89837   0.29465   0.24989   1.000
    C259    C    0.35493   0.79315   0.75054   1.000
    C260    C    0.85538   0.79189   0.75023   1.000
    N261    N    0.55414   0.42233   0.93264   1.000
    N262    N    0.19783   0.92920   0.06945   1.000
    N263    N    0.69685   0.92973   0.06953   1.000
    N264    N    0.05621   0.42583   0.56810   1.000
    N265    N    0.55624   0.42581   0.56811   1.000
    N266    N    0.19756   0.93135   0.43000   1.000
    N267    N    0.69762   0.93134   0.43008   1.000
    N268    N    0.44865   0.57898   0.06772   1.000
    N269    N    0.94834   0.57880   0.06774   1.000
    N270    N    0.30421   0.06972   0.93123   1.000
    N271    N    0.80461   0.06972   0.93120   1.000
    N272    N    0.21799   0.58009   0.74831   1.000
    N273    N    0.71713   0.57950   0.74824   1.000
    N274    N    0.03868   0.08330   0.24969   1.000
    N275    N    0.53866   0.08333   0.24965   1.000
    N276    N    0.28613   0.42099   0.24948   1.000
    N277    N    0.78601   0.42097   0.24952   1.000
    N278    N    0.46613   0.91812   0.75095   1.000
    N279    N    0.96611   0.91720   0.75130   1.000
    O280    O    0.04835   0.76056   0.65819   1.000
    O281    O    0.54833   0.76060   0.65811   1.000
    O282    O    0.14217   0.69066   0.61842   1.000
    O283    O    0.64209   0.69064   0.61829   1.000
    O284    O    0.08357   0.73571   0.51510   1.000
    O285    O    0.58349   0.73574   0.51508   1.000
    O286    O    0.18726   0.64970   0.51830   1.000
    O287    O    0.68721   0.64975   0.51813   1.000
    O288    O    0.03821   0.34718   0.41898   1.000
    O289    O    0.53820   0.34716   0.41897   1.000
    O290    O    0.16529   0.39143   0.42121   1.000
    O291    O    0.66526   0.39144   0.42121   1.000
    O292    O    0.20464   0.26035   0.34230   1.000
    O293    O    0.70463   0.26034   0.34228   1.000
    O294    O    0.11113   0.19089   0.38154   1.000
    O295    O    0.61113   0.19088   0.38152   1.000
    O296    O    0.17659   0.23544   0.48561   1.000
    O297    O    0.67657   0.23544   0.48561   1.000
    O298    O    0.06908   0.15633   0.48346   1.000
    O299    O    0.56906   0.15634   0.48345   1.000
    O300    O    0.21220   0.84669   0.58319   1.000
    O301    O    0.71217   0.84669   0.58316   1.000
    O302    O    0.08527   0.89267   0.57722   1.000
    O303    O    0.58522   0.89265   0.57721   1.000
    O304    O    0.45492   0.24294   0.15750   1.000
    O305    O    0.95478   0.24283   0.15762   1.000
    O306    O    0.36017   0.31279   0.11815   1.000
    O307    O    0.86014   0.31274   0.11819   1.000
    O308    O    0.41706   0.26528   0.01508   1.000
    O309    O    0.91688   0.26491   0.01516   1.000
    O310    O    0.31293   0.35071   0.01680   1.000
    O311    O    0.81291   0.35058   0.01683   1.000
    O312    O    0.46566   0.65383   0.92077   1.000
    O313    O    0.96622   0.65334   0.92094   1.000
    O314    O    0.33819   0.61089   0.92162   1.000
    O315    O    0.83863   0.61074   0.92155   1.000
    O316    O    0.29887   0.74281   0.84337   1.000
    O317    O    0.79894   0.73994   0.84209   1.000
    O318    O    0.39298   0.81242   0.88232   1.000
    O319    O    0.89206   0.80911   0.88224   1.000
    O320    O    0.32974   0.76748   0.98544   1.000
    O321    O    0.82645   0.76712   0.98564   1.000
    O322    O    0.43726   0.84653   0.98533   1.000
    O323    O    0.93552   0.84397   0.98545   1.000
    O324    O    0.29076   0.15587   0.08320   1.000
    O325    O    0.79154   0.15577   0.08326   1.000
    O326    O    0.41779   0.10995   0.07870   1.000
    O327    O    0.91822   0.10860   0.07881   1.000
    O328    O    0.45421   0.24332   0.34272   1.000
    O329    O    0.95420   0.24337   0.34275   1.000
    O330    O    0.36073   0.31569   0.38137   1.000
    O331    O    0.86070   0.31571   0.38140   1.000
    O332    O    0.41988   0.26802   0.48470   1.000
    O333    O    0.91989   0.26803   0.48400   1.000
    O334    O    0.31585   0.35363   0.48263   1.000
    O335    O    0.81584   0.35362   0.48264   1.000
    O336    O    0.46548   0.65643   0.58100   1.000
    O337    O    0.96547   0.65644   0.58108   1.000
    O338    O    0.33840   0.61224   0.57885   1.000
    O339    O    0.83837   0.61230   0.57870   1.000
    O340    O    0.29873   0.74296   0.65796   1.000
    O341    O    0.79877   0.74292   0.65772   1.000
    O342    O    0.39231   0.81239   0.61877   1.000
    O343    O    0.89240   0.81248   0.61865   1.000
    O344    O    0.32698   0.76822   0.51433   1.000
    O345    O    0.82705   0.76823   0.51429   1.000
    O346    O    0.43463   0.84714   0.51674   1.000
    O347    O    0.93472   0.84712   0.51672   1.000
    O348    O    0.29184   0.15725   0.41679   1.000
    O349    O    0.79185   0.15727   0.41600   1.000
    O350    O    0.41868   0.11093   0.42289   1.000
    O351    O    0.91869   0.11095   0.42288   1.000
    O352    O    0.05058   0.75396   0.84449   1.000
    O353    O    0.54939   0.75344   0.84412   1.000
    O354    O    0.14607   0.68077   0.88120   1.000
    O355    O    0.64535   0.68095   0.88097   1.000
    O356    O    0.08734   0.73286   0.98362   1.000
    O357    O    0.58741   0.73298   0.98348   1.000
    O358    O    0.19057   0.64649   0.98362   1.000
    O359    O    0.69050   0.64636   0.98311   1.000
    O360    O    0.03489   0.34663   0.08055   1.000
    O361    O    0.53500   0.34687   0.08060   1.000
    O362    O    0.16282   0.38865   0.07891   1.000
    O363    O    0.66301   0.38861   0.07885   1.000
    O364    O    0.20467   0.26012   0.15793   1.000
    O365    O    0.70475   0.26012   0.15795   1.000
    O366    O    0.11111   0.19115   0.11808   1.000
    O367    O    0.61128   0.19116   0.11802   1.000
    O368    O    0.17331   0.23283   0.01450   1.000
    O369    O    0.67338   0.23248   0.01453   1.000
    O370    O    0.06623   0.15314   0.01663   1.000
    O371    O    0.56627   0.15289   0.01650   1.000
    O372    O    0.20872   0.84342   0.91677   1.000
    O373    O    0.70948   0.84354   0.91531   1.000
    O374    O    0.08255   0.89130   0.92277   1.000
    O375    O    0.58321   0.89107   0.92156   1.000
loop_
    _geom_bond_atom_site_label_1
    _geom_bond_atom_site_label_2
    _geom_bond_distance
    _geom_bond_site_symmetry_2
    _ccdc_geom_bond_type
    C244   O369      1.28222      .   S
    C244   O371      1.27083      .   S
    C244   C240      1.49142  1_554   S
    C243   O368      1.28116      .   S
    C243   O370      1.27121      .   S
    C243   C239      1.49035  1_554   S
    C147   O308      1.28503      .   S
    C147   O310      1.26990      .   S
    C147   C143      1.49025  1_554   S
    C148   O309      1.28533      .   S
    C148   O311      1.26984      .   S
    C148   C144      1.48994  1_554   S
    O368   Y13       2.23180      .   S
    O369   Y14       2.23075      .   S
    O308   Y4        2.24096      .   S
    O309   Y3        2.24096      .   S
    O371   Y4        2.30203      .   S
    O370   Y3        2.29953  1_455   S
    O310   Y13       2.30770      .   S
    O311   Y14       2.30818      .   S
    C220   C218      1.39774      .   S
    C220   C221      1.40356      .   S
    C220   C224      1.48909  1_554   S
    C219   C217      1.39770      .   S
    C219   C222      1.40357  1_455   S
    C219   C223      1.48842  1_554   S
    H67    C218      1.08873      .   S
    H66    C217      1.08871      .   S
    C164   C162      1.39852      .   S
    C164   C166      1.40495      .   S
    C164   C168      1.48930  1_554   S
    C163   C165      1.36978      .   S
    C163   C161      1.39837      .   S
    C163   C167      1.48992  1_554   S
    H42    C161      1.08881      .   S
    H43    C162      1.08886      .   S
    H68    C221      1.09113      .   S
    H69    C222      1.09120      .   S
    H44    C165      1.07053      .   S
    H45    C166      1.09111      .   S
    C165   N262      1.41525      .   S
    C218   C216      1.39518      .   S
    C217   C215      1.39501      .   S
    C162   C160      1.39639  1_565   S
    C161   C159      1.39475  1_565   S
    C221   N268      1.34284      .   S
    C222   N269      1.34275      .   S
    C166   N263      1.34241      .   S
    C216   C226      1.49054      .   S
    C216   C213      1.40383      .   S
    C215   C225      1.49051      .   S
    C215   C214      1.40412  1_455   S
    C159   C169      1.49147      .   S
    C159   C157      1.40518  1_545   S
    C160   C170      1.49086      .   S
    C160   C158      1.40470      .   S
    N268   C213      1.34185      .   S
    N269   C214      1.34231      .   S
    N262   C157      1.34187      .   S
    N263   C158      1.34063  1_565   S
    C226   O363      1.27357      .   S
    C226   O361      1.27387      .   S
    C225   O362      1.27373      .   S
    C225   O360      1.27364      .   S
    Y4     O326      2.26214      .   S
    Y4     O361      2.24848      .   S
    Y4     O367      2.28906      .   S
    Y4     O304      2.34651      .   S
    Y3     O327      2.26927      .   S
    Y3     O360      2.25071  1_655   S
    Y3     O366      2.28860  1_655   S
    Y3     O305      2.34593      .   S
    Y14    O363      2.25738      .   S
    Y14    O325      2.24393      .   S
    Y14    O307      2.28577      .   S
    Y14    O365      2.34755      .   S
    Y13    O362      2.25542      .   S
    Y13    O324      2.24302      .   S
    Y13    O306      2.28464      .   S
    Y13    O364      2.34786      .   S
    C213   H64       1.09295      .   S
    C214   H65       1.09219      .   S
    C170   O327      1.27392      .   S
    C170   O325      1.27439      .   S
    C169   O326      1.27375      .   S
    C169   O324      1.27335      .   S
    C157   H40       1.09211  1_565   S
    C158   H41       1.09309      .   S
    O367   C252      1.29188      .   S
    O366   C251      1.29153      .   S
    O306   C155      1.28989      .   S
    O307   C156      1.28970      .   S
    O304   C155      1.26888      .   S
    O305   C156      1.26905      .   S
    O364   C251      1.26837      .   S
    O365   C252      1.26835      .   S
    C155   C153      1.48620      .   S
    C156   C154      1.48603      .   S
    C252   C250      1.48617      .   S
    C251   C249      1.48639      .   S
    H38    C151      1.09142      .   S
    H39    C152      1.09142      .   S
    H79    C248      1.09150      .   S
    H78    C247      1.09156      .   S
    C153   C151      1.40390      .   S
    C153   C257      1.39689      .   S
    C154   C152      1.40387      .   S
    C154   C258      1.39672      .   S
    C250   C248      1.40375      .   S
    C250   C256      1.39685      .   S
    C249   C247      1.40375      .   S
    C249   C255      1.39695      .   S
    C151   N276      1.34165      .   S
    C152   N277      1.34181      .   S
    C248   N275      1.34186      .   S
    C247   N274      1.34181      .   S
    N276   C191      1.34173      .   S
    N277   C192      1.34177      .   S
    N275   C127      1.34191      .   S
    N274   C126      1.34202      .   S
    C257   H84       1.08842      .   S
    C257   C193      1.39650      .   S
    C258   H85       1.08841      .   S
    C258   C194      1.39664      .   S
    C256   H83       1.08837      .   S
    C256   C129      1.39676      .   S
    C255   H82       1.08838      .   S
    C255   C128      1.39648      .   S
    C191   C193      1.40416      .   S
    C191   H54       1.09143      .   S
    C192   C194      1.40420      .   S
    C192   H55       1.08222      .   S
    C127   C129      1.40405      .   S
    C127   H30       1.09153      .   S
    C126   C128      1.40402      .   S
    C126   H29       1.09142      .   S
    C193   C195      1.48653      .   S
    C194   C196      1.48642      .   S
    C129   C131      1.48726      .   S
    C128   C130      1.48731      .   S
    C131   O293      1.26872      .   S
    C131   O295      1.29032      .   S
    C130   O292      1.26872      .   S
    C130   O294      1.29033      .   S
    C195   O328      1.26894      .   S
    C195   O330      1.29013      .   S
    C196   O329      1.26894      .   S
    C196   O331      1.29008      .   S
    O293   Y2        2.34943      .   S
    O292   Y1        2.34871      .   S
    O328   Y8        2.34526      .   S
    O329   Y7        2.34522      .   S
    O330   Y1        2.27848      .   S
    O331   Y2        2.27827      .   S
    O295   Y8        2.28332      .   S
    O294   Y7        2.28320  1_455   S
    H56    C197      1.11168      .   S
    H57    C198      1.11177      .   S
    H15    C88       1.09214      .   S
    H16    C89       1.09228      .   S
    O349   Y2        2.25086      .   S
    O349   C102      1.27759      .   S
    O348   Y1        2.24905      .   S
    O348   C101      1.27426      .   S
    O289   Y8        2.24743      .   S
    O289   C105      1.27414      .   S
    O288   Y7        2.24750  1_455   S
    O288   C104      1.27418      .   S
    C197   N266      1.31599  1_545   S
    C197   C199      1.41175      .   S
    C198   N267      1.31632  1_545   S
    C198   C200      1.41174      .   S
    O291   Y2        2.25965      .   S
    O291   C105      1.27357      .   S
    O290   Y1        2.25947      .   S
    O290   C104      1.27359      .   S
    C88    N132      1.34222      .   S
    C88    C91       1.39926      .   S
    C89    N133      1.34216      .   S
    C89    C90       1.40407  1_655   S
    O351   C102      1.27416      .   S
    O351   Y7        2.26596      .   S
    O350   C101      1.27416      .   S
    O350   Y8        2.26598      .   S
    Y1     O334      2.30808      .   S
    Y1     O296      2.22899      .   S
    Y2     O335      2.30796      .   S
    Y2     O297      2.22875      .   S
    C101   C199      1.49161      .   S
    C102   C200      1.49156      .   S
    Y8     O299      2.29203      .   S
    Y8     O332      2.23704      .   S
    Y7     O298      2.29209  1_655   S
    Y7     O333      2.22247      .   S
    C105   C91       1.48634      .   S
    C104   C90       1.49043      .   S
    N266   C205      1.34359      .   S
    N267   C206      1.34262      .   S
    N132   C96       1.33878      .   S
    N133   C97       1.34280      .   S
    C199   C201      1.39627  1_545   S
    C200   C202      1.39629  1_545   S
    C91    C93       1.40616      .   S
    C90    C92       1.39465      .   S
    C206   H61       1.09117      .   S
    C206   C204      1.40412      .   S
    C205   H60       1.09129      .   S
    C205   C203      1.40422      .   S
    C96    H19       1.09286      .   S
    C96    C95       1.40643      .   S
    C97    H20       1.09111      .   S
    C97    C94       1.40388  1_655   S
    C201   H58       1.08890      .   S
    C201   C203      1.39865      .   S
    C202   H59       1.08886      .   S
    C202   C204      1.39861      .   S
    C92    H17       1.08933      .   S
    C92    C94       1.39817      .   S
    C93    H18       1.08872      .   S
    C93    C95       1.39770      .   S
    C204   C100      1.49060      .   S
    C203   C207      1.49055      .   S
    C95    C99       1.48965      .   S
    C94    C98       1.48984      .   S
    O334   C187      1.26955      .   S
    O335   C188      1.26940      .   S
    O299   C123      1.27031      .   S
    O298   C122      1.27068      .   S
    O333   C188      1.29055      .   S
    O332   C187      1.28555      .   S
    O296   C122      1.28186      .   S
    O297   C123      1.28154      .   S
    C188   C184      1.48969      .   S
    C187   C183      1.48932      .   S
    C123   C119      1.49071      .   S
    C122   C118      1.48991      .   S
    C100   O345      1.28222      .   S
    C100   O347      1.27041      .   S
    C207   O344      1.28224      .   S
    C207   O346      1.27050      .   S
    C99    O285      1.28462      .   S
    C99    O287      1.27012      .   S
    C98    O284      1.28444      .   S
    C98    O286      1.26999      .   S
    O345   Y10       2.22704      .   S
    O344   Y9        2.22771      .   S
    O285   Y32       2.24122      .   S
    O284   Y0        2.31522      .   S
    O347   Y0        2.23345  1_655   S
    O346   Y32       2.29689      .   S
    O287   Y10       2.30529      .   S
    O286   Y9        2.30627      .   S
    C183   C181      1.39778      .   S
    C183   C186      1.40376      .   S
    C184   C182      1.39779      .   S
    C184   C185      1.40371  1_655   S
    C119   C117      1.39857      .   S
    C119   C121      1.40392      .   S
    C118   C116      1.39865      .   S
    C118   C120      1.40390      .   S
    H51    C182      1.08875      .   S
    H50    C181      1.08875      .   S
    H26    C117      1.08883      .   S
    H25    C116      1.08886      .   S
    H53    C186      1.09116      .   S
    H52    C185      1.09120      .   S
    H27    C120      1.09118      .   S
    H28    C121      1.09119      .   S
    C182   C180      1.39540      .   S
    C181   C179      1.39543      .   S
    C117   C115      1.39591  1_545   S
    C116   C114      1.39587  1_545   S
    C186   N265      1.34278      .   S
    C185   N264      1.34237      .   S
    C120   N134      1.34264      .   S
    C121   N135      1.34253      .   S
    C180   C190      1.49066      .   S
    C180   C177      1.40360  1_655   S
    C179   C189      1.49060      .   S
    C179   C178      1.40420      .   S
    C115   C125      1.49135      .   S
    C115   C113      1.40486  1_565   S
    C114   C124      1.49136      .   S
    C114   C112      1.40487  1_565   S
    N264   C177      1.34185      .   S
    N265   C178      1.34211      .   S
    N134   C112      1.34169      .   S
    N135   C113      1.34170      .   S
    C190   O339      1.27322      .   S
    C190   O337      1.27419      .   S
    C189   O338      1.27336      .   S
    C189   O336      1.27401      .   S
    C125   O303      1.27418      .   S
    C125   O301      1.27367      .   S
    C124   O302      1.27415      .   S
    C124   O300      1.27365      .   S
    Y32    O303      2.26581      .   S
    Y32    O336      2.24762      .   S
    Y32    O342      2.28948      .   S
    Y32    O281      2.35015      .   S
    Y0     O302      2.34205      .   S
    Y0     O337      2.20997  1_455   S
    Y0     O343      2.18215  1_455   S
    Y0     O280      2.39103      .   S
    Y10    O339      2.26127      .   S
    Y10    O301      2.24724      .   S
    Y10    O283      2.27890      .   S
    Y10    O341      2.34529      .   S
    Y9     O338      2.26132      .   S
    Y9     O300      2.24712      .   S
    Y9     O282      2.27902      .   S
    Y9     O340      2.34658      .   S
    C177   H48       1.09323      .   S
    C178   H49       1.09216      .   S
    C113   H24       1.09209  1_545   S
    C112   H23       1.09213  1_545   S
    O283   C111      1.29048      .   S
    O282   C110      1.29051      .   S
    O343   C212      1.29048      .   S
    O342   C211      1.29105      .   S
    O341   C212      1.26887      .   S
    O340   C211      1.26887      .   S
    O281   C111      1.26839      .   S
    O280   C110      1.26832      .   S
    C111   C109      1.48498      .   S
    C212   C210      1.48731      .   S
    C110   C108      1.48548      .   S
    C211   C209      1.48785      .   S
    H22    C107      1.09144      .   S
    H21    C106      1.08961      .   S
    H62    C103      1.09133      .   S
    H63    C208      1.09038      .   S
    C109   C107      1.40394      .   S
    C109   C254      1.39711      .   S
    C108   C106      1.40402      .   S
    C108   C253      1.39736      .   S
    C210   C208      1.40384      .   S
    C210   C260      1.39663      .   S
    C209   C103      1.40391      .   S
    C209   C259      1.39765      .   S
    C107   N273      1.34142      .   S
    C106   N272      1.34305      .   S
    C103   N278      1.34181      .   S
    C208   N279      1.34289      .   S
    N273   C228      1.34157      .   S
    N272   C227      1.34171      .   S
    H87    C260      1.08842      .   S
    C254   H81       1.08850      .   S
    C254   C230      1.39621      .   S
    C260   C174      1.39721      .   S
    C253   H80       1.08853      .   S
    C253   C229      1.39456      .   S
    H86    C259      1.08853      .   S
    C259   C173      1.39614      .   S
    N278   C171      1.34169      .   S
    N279   C172      1.34195      .   S
    C228   C230      1.40446      .   S
    C228   H71       1.09120      .   S
    C227   C229      1.40433      .   S
    C227   H70       1.09130      .   S
    C171   C173      1.40419      .   S
    C171   H46       1.09141      .   S
    C172   C174      1.40389      .   S
    C172   H47       1.09157      .   S
    C230   C232      1.48725      .   S
    C229   C231      1.48966      .   S
    C174   C176      1.48650      .   S
    C173   C175      1.48919      .   S
    C176   O317      1.26721      .   S
    C176   O319      1.29286      .   S
    O317   Y6        2.35350      .   S
    C232   O353      1.26921      .   S
    C232   O355      1.28859      .   S
    C231   O352      1.26942      .   S
    C231   O354      1.28800      .   S
    C175   O316      1.26728      .   S
    C175   O318      1.29151      .   S
    O316   Y5        2.34936      .   S
    O353   Y11       2.34759      .   S
    O352   Y12       2.38292      .   S
    O355   Y6        2.26288      .   S
    O354   Y5        2.26564      .   S
    O319   Y12       2.18425  1_655   S
    O318   Y11       2.27024      .   S
    H73    C234      1.09229      .   S
    H72    C233      1.09317      .   S
    H33    C138      1.09281      .   S
    H31    C137      1.09224      .   S
    O373   C246      1.27425      .   S
    O373   Y6        2.25279      .   S
    O372   C245      1.27411      .   S
    O372   Y5        2.24774      .   S
    O312   Y11       2.24782      .   S
    O312   C149      1.27366      .   S
    O313   Y12       2.21498  1_655   S
    O313   C150      1.27387      .   S
    C234   N271      1.34181  1_565   S
    C234   C236      1.40417      .   S
    O315   Y6        2.25480      .   S
    O315   C150      1.27258      .   S
    O375   C246      1.27442      .   S
    O375   Y11       2.26467      .   S
    O314   Y5        2.25390      .   S
    O314   C149      1.27301      .   S
    C233   N270      1.34205  1_565   S
    C233   C235      1.40424      .   S
    C246   C236      1.49126      .   S
    O374   C245      1.27436      .   S
    O374   Y12       2.33056      .   S
    Y6     O359      2.31538      .   S
    Y6     O321      2.22767      .   S
    C138   N261      1.34225      .   S
    C138   C139      1.40419      .   S
    C137   N136      1.34224      .   S
    C137   C140      1.40425  1_455   S
    C245   C235      1.49004      .   S
    Y5     O358      2.31082      .   S
    Y5     O320      2.23411      .   S
    Y11    O357      2.23743      .   S
    Y11    O322      2.30102      .   S
    Y12    O356      2.30206      .   S
    Y12    O323      2.24259  1_455   S
    C149   C139      1.49077      .   S
    C150   C140      1.49086      .   S
    N271   C242      1.34300      .   S
    N270   C241      1.34264      .   S
    N261   C146      1.34252      .   S
    N136   C145      1.34253      .   S
    C236   C238      1.39671  1_565   S
    C235   C237      1.39601  1_565   S
    C139   C141      1.39588      .   S
    C140   C142      1.39575      .   S
    C241   H76       1.09119      .   S
    C241   C239      1.40439      .   S
    C242   H77       1.09114      .   S
    C242   C240      1.40453      .   S
    C146   H37       1.09118      .   S
    C146   C143      1.40399      .   S
    C145   H36       1.09113      .   S
    C145   C144      1.40392  1_455   S
    C238   H75       1.08886      .   S
    C238   C240      1.39815      .   S
    C237   H74       1.08871      .   S
    C237   C239      1.39746      .   S
    C141   H34       1.08888      .   S
    C141   C143      1.39790      .   S
    C142   H35       1.08888      .   S
    C142   C144      1.39809      .   S
    O359   C224      1.26845      .   S
    O357   C224      1.28661      .   S
    O358   C223      1.26898      .   S
    O356   C223      1.28636      .   S
    O322   C167      1.27121      .   S
    O320   C167      1.28193      .   S
    O323   C168      1.27155      .   S
    O321   C168      1.28037      .   S
    O283   Y32       2.93623      .   S
    O294   Y1        2.98523      .   S
    O295   Y2        2.98544      .   S
    O306   Y4        2.95491      .   S
    O307   Y3        2.95301      .   S
    O319   Y6        2.96619      .   S
    O330   Y8        2.98252      .   S
    O331   Y7        2.98292      .   S
    O342   Y9        2.97373      .   S
    O343   Y10       2.97769      .   S
    O366   Y13       2.94326      .   S
    O367   Y14       2.93794      .   S
