# CIF file generated by openbabel 2.4.90, see http://openbabel.sf.net
data_I
_chemical_name_common ''
_cell_length_a 16.645
_cell_length_b 16.816
_cell_length_c 27.26
_cell_angle_alpha 90.069
_cell_angle_beta 90.16
_cell_angle_gamma 89.401
_space_group_name_H-M_alt 'P 1'
_space_group_name_Hall 'P 1'
loop_
    _symmetry_equiv_pos_as_xyz
    x,y,z
loop_
    _atom_site_label
    _atom_site_type_symbol
    _atom_site_fract_x
    _atom_site_fract_y
    _atom_site_fract_z
    _atom_site_occupancy
    Y0      Y    0.00000   0.78276   0.57662   1.000
    Y1      Y    0.24731   0.28356   0.42321   1.000
    Y2      Y    0.74728   0.28357   0.42322   1.000
    Y3      Y    0.99477   0.21940   0.07638   1.000
    Y4      Y    0.49506   0.21973   0.07624   1.000
    Y5      Y    0.25624   0.71836   0.92399   1.000
    Y6      Y    0.75617   0.71795   0.92312   1.000
    Y7      Y    0.99641   0.22078   0.42374   1.000
    Y8      Y    0.49639   0.22076   0.42372   1.000
    Y9      Y    0.25665   0.72046   0.57694   1.000
    Y10     Y    0.75653   0.72044   0.57678   1.000
    Y11     Y    0.50666   0.78064   0.92446   1.000
    Y12     Y    0.00000   0.78026   0.92464   1.000
    Y13     Y    0.24532   0.28146   0.07664   1.000
    Y14     Y    0.74534   0.28114   0.07663   1.000
    Y15     Y    0.50759   0.78277   0.57661   1.000
