# CIF file generated by openbabel 2.4.90, see http://openbabel.sf.net
data_I
_chemical_name_common ''
_cell_length_a 16.645
_cell_length_b 16.816
_cell_length_c 27.26
_cell_angle_alpha 90.069
_cell_angle_beta 90.16
_cell_angle_gamma 89.401
_space_group_name_H-M_alt 'P 1'
_space_group_name_Hall 'P 1'
loop_
    _symmetry_equiv_pos_as_xyz
    x,y,z
loop_
    _atom_site_label
    _atom_site_type_symbol
    _atom_site_fract_x
    _atom_site_fract_y
    _atom_site_fract_z
    _atom_site_occupancy
    N0      N    0.94102   0.45256   0.95488   1.000
    N1      N    0.19291   0.04734   0.54659   1.000
    N2      N    0.94263   0.45570   0.54560   1.000
    N3      N    0.13764   0.67257   0.74980   1.000
    N4      N    0.36630   0.32803   0.24977   1.000
    N5      N    0.88674   0.82505   0.75054   1.000
    N6      N    0.31092   0.95631   0.45347   1.000
    N7      N    0.81098   0.95632   0.45342   1.000
    N8      N    0.56158   0.54684   0.04538   1.000
    N9      N    0.61719   0.17624   0.24984   1.000
    N10     N    0.44088   0.45295   0.95482   1.000
    N11     N    0.19042   0.04461   0.95381   1.000
    N12     N    0.69076   0.04443   0.95341   1.000
    N13     N    0.81060   0.95457   0.04710   1.000
    N14     N    0.31148   0.95501   0.04671   1.000
    N15     N    0.38666   0.82629   0.75068   1.000
    N16     N    0.44265   0.45568   0.54566   1.000
    N17     N    0.06098   0.54790   0.45451   1.000
    N18     N    0.56089   0.54789   0.45439   1.000
    N19     N    0.11718   0.17623   0.24986   1.000
    N20     N    0.86622   0.32802   0.24978   1.000
    N21     N    0.63702   0.67225   0.74965   1.000
    N22     N    0.06138   0.54674   0.04550   1.000
    N23     N    0.69286   0.04734   0.54658   1.000
    Zr24    Zr   0.50759   0.78277   0.57661   1.000
    O25     O    0.56361   0.86265   0.56918   1.000
    O26     O    0.53040   0.71817   0.53836   1.000
    O27     O    0.46295   0.79735   0.62540   1.000
    O28     O    0.48609   0.68521   0.56942   1.000
    O29     O    0.44930   0.83420   0.53834   1.000
    Zr30    Zr   0.50666   0.78064   0.92446   1.000
    O31     O    0.48509   0.68287   0.93159   1.000
    O32     O    0.44919   0.83247   0.96263   1.000
    O33     O    0.54459   0.75014   0.87071   1.000
    O34     O    0.46245   0.79603   0.87575   1.000
    O35     O    0.53048   0.71623   0.96207   1.000
    O36     O    0.56225   0.86039   0.93134   1.000
    Zr37    Zr   0.49639   0.22076   0.42372   1.000
    O38     O    0.47339   0.28539   0.46183   1.000
    O39     O    0.55459   0.16935   0.46190   1.000
    O40     O    0.51774   0.31834   0.43079   1.000
    O41     O    0.44031   0.14092   0.43105   1.000
    O42     O    0.54093   0.20589   0.37497   1.000
    Zr43    Zr   0.25665   0.72046   0.57694   1.000
    O44     O    0.19906   0.66847   0.53900   1.000
    O45     O    0.31337   0.64073   0.56936   1.000
    O46     O    0.21259   0.70476   0.62534   1.000
    O47     O    0.27901   0.78539   0.53825   1.000
    O48     O    0.23516   0.81796   0.57013   1.000
    Zr49    Zr   0.75617   0.71795   0.92312   1.000
    O50     O    0.77856   0.78325   0.96193   1.000
    O51     O    0.73398   0.81527   0.92972   1.000
    O52     O    0.81269   0.63820   0.93086   1.000
    O53     O    0.71253   0.70190   0.87448   1.000
    O54     O    0.69932   0.66623   0.96118   1.000
    Zr55    Zr   0.24532   0.28146   0.07664   1.000
    O56     O    0.26754   0.18415   0.06998   1.000
    O57     O    0.22260   0.21617   0.03817   1.000
    O58     O    0.30266   0.33299   0.03870   1.000
    O59     O    0.28992   0.29702   0.12511   1.000
    O60     O    0.18902   0.36118   0.06914   1.000
    Zr61    Zr   0.74534   0.28114   0.07663   1.000
    O62     O    0.76743   0.18383   0.07008   1.000
    O63     O    0.78991   0.29681   0.12511   1.000
    O64     O    0.80271   0.33268   0.03872   1.000
    O65     O    0.72270   0.21588   0.03806   1.000
    O66     O    0.68911   0.36100   0.06910   1.000
    Zr67    Zr   0.00000   0.78276   0.57662   1.000
    O68     O    0.94458   0.83420   0.53833   1.000
    O69     O    0.95823   0.79705   0.62535   1.000
    O70     O    0.02569   0.71816   0.53840   1.000
    O71     O    0.04045   0.75244   0.63011   1.000
    O72     O    0.05889   0.86264   0.56919   1.000
    O73     O    0.98134   0.68520   0.56942   1.000
    Zr74    Zr   0.24731   0.28356   0.42321   1.000
    O75     O    0.30471   0.33535   0.46125   1.000
    O76     O    0.29123   0.29869   0.37462   1.000
    O77     O    0.19047   0.36313   0.43078   1.000
    O78     O    0.22487   0.21849   0.46186   1.000
    O79     O    0.26878   0.18596   0.42997   1.000
    Zr80    Zr   0.25624   0.71836   0.92399   1.000
    O81     O    0.29417   0.74840   0.87059   1.000
    O82     O    0.19931   0.66647   0.96182   1.000
    O83     O    0.21282   0.70222   0.87509   1.000
    O84     O    0.27924   0.78366   0.96235   1.000
    O85     O    0.23384   0.81556   0.93054   1.000
    O86     O    0.31264   0.63858   0.93140   1.000
    Zr87    Zr   0.75653   0.72044   0.57678   1.000
    O88     O    0.69896   0.66847   0.53885   1.000
    O89     O    0.77896   0.78538   0.53813   1.000
    O90     O    0.71235   0.70467   0.62519   1.000
    O91     O    0.81329   0.64074   0.56923   1.000
    O92     O    0.73507   0.81794   0.57003   1.000
    Zr93    Zr   0.49506   0.21973   0.07624   1.000
    O94     O    0.55288   0.16755   0.03807   1.000
    O95     O    0.43950   0.13983   0.06916   1.000
    O96     O    0.54012   0.20529   0.12486   1.000
    O97     O    0.51668   0.31740   0.06907   1.000
    O98     O    0.47176   0.28373   0.03824   1.000
    Zr99    Zr   0.74728   0.28357   0.42322   1.000
    O100    O    0.69043   0.36313   0.43076   1.000
    O101    O    0.80469   0.33535   0.46124   1.000
    O102    O    0.76878   0.18597   0.42987   1.000
    O103    O    0.79119   0.29870   0.37463   1.000
    O104    O    0.72484   0.21849   0.46186   1.000
    Zr105   Zr   0.99477   0.21940   0.07638   1.000
    O106    O    0.05261   0.16742   0.03827   1.000
    O107    O    0.03991   0.20507   0.12496   1.000
    O108    O    0.01643   0.31714   0.06918   1.000
    O109    O    0.93916   0.13934   0.06936   1.000
    O110    O    0.97159   0.28338   0.03835   1.000
    Zr111   Zr   0.99641   0.22078   0.42374   1.000
    O112    O    0.01778   0.31836   0.43084   1.000
    O113    O    0.97340   0.28541   0.46174   1.000
    O114    O    0.05462   0.16936   0.46192   1.000
    O115    O    0.04094   0.20590   0.37500   1.000
    O116    O    0.94034   0.14093   0.43105   1.000
    Zr117   Zr   0.00000   0.78026   0.92464   1.000
    O118    O    0.94459   0.83180   0.96286   1.000
    O119    O    0.02626   0.71595   0.96223   1.000
    O120    O    0.98103   0.68247   0.93174   1.000
    O121    O    0.05792   0.86023   0.93170   1.000
    O122    O    0.04073   0.75005   0.87091   1.000
    O123    O    0.95819   0.79506   0.87581   1.000
    O124    O    0.70239   0.24798   0.12760   1.000
    O125    O    0.70358   0.24949   0.37221   1.000
    O126    O    0.45275   0.25492   0.37252   1.000
    O127    O    0.30026   0.75407   0.62805   1.000
    O128    O    0.95172   0.25385   0.12742   1.000
    O129    O    0.95274   0.25493   0.37254   1.000
    O130    O    0.80022   0.75375   0.62789   1.000
    O131    O    0.55090   0.74800   0.62757   1.000
    O132    O    0.20236   0.24817   0.12762   1.000
    O133    O    0.20360   0.24948   0.37221   1.000
    O134    O    0.79998   0.75180   0.87235   1.000
    O135    O    0.45193   0.25407   0.12732   1.000
loop_
    _geom_bond_atom_site_label_1
    _geom_bond_atom_site_label_2
    _geom_bond_distance
    _geom_bond_site_symmetry_2
    _ccdc_geom_bond_type
    Zr24   O25       1.65610      .   S
    N23    O25       3.84773  1_545   S
    Zr24   O26       1.54987      .   S
    N18    O26       3.69555      .   S
    Zr24   O27       1.54337      .   S
    N15    O27       3.67700      .   S
    Zr24   O28       1.69393      .   S
    N16    O28       3.98620      .   S
    Zr24   O29       1.66025      .   S
    N6     O29       3.84146      .   S
    Zr30   O31       1.69805      .   S
    N10    O31       3.99475      .   S
    Zr30   O32       1.65629      .   S
    N14    O32       3.83048  1_554   S
    Zr30   O33       1.67475      .   S
    N21    O33       3.86656      .   S
    Zr30   O34       1.53724      .   S
    N15    O34       3.66612      .   S
    Zr30   O35       1.54040      .   S
    N8     O35       3.67674  1_554   S
    Zr30   O36       1.64751      .   S
    N12    O36       3.82643  1_545   S
    Zr37   O38       1.54852      .   S
    N16    O38       3.69375      .   S
    Zr37   O39       1.65776      .   S
    N23    O39       3.83646      .   S
    Zr37   O40       1.69331      .   S
    N18    O40       3.98494      .   S
    Zr37   O41       1.65584      .   S
    N6     O41       3.84710  1_565   S
    Zr37   O42       1.54229      .   S
    N9     O42       3.67464      .   S
    Zr43   O44       1.66207      .   S
    N17    O44       3.84129      .   S
    Zr43   O45       1.64472      .   S
    N16    O45       3.82030      .   S
    Zr43   O46       1.53580      .   S
    N3     O46       3.66098      .   S
    Zr43   O47       1.56744      .   S
    N6     O47       3.73344      .   S
    Zr43   O48       1.68484      .   S
    N1     O48       3.96637  1_545   S
    Zr49   O50       1.57086      .   S
    N13    O50       3.73946  1_554   S
    Zr49   O51       1.68341      .   S
    N12    O51       3.96524  1_545   S
    Zr49   O52       1.64353      .   S
    N0     O52       3.82021      .   S
    Zr49   O53       1.53502      .   S
    N21    O53       3.65982      .   S
    Zr49   O54       1.65947      .   S
    N8     O54       3.83290  1_554   S
    Zr55   O56       1.68361      .   S
    N14    O56       3.96509  1_565   S
    Zr55   O57       1.56599      .   S
    N11    O57       3.72921  1_556   S
    Zr55   O58       1.66017      .   S
    N10    O58       3.83788  1_556   S
    Zr55   O59       1.53725      .   S
    N4     O59       3.66345      .   S
    Zr55   O60       1.64021      .   S
    N22    O60       3.81110      .   S
    Zr61   O62       1.68290      .   S
    N13    O62       3.96356  1_565   S
    Zr61   O63       1.53763      .   S
    N20    O63       3.66386      .   S
    Zr61   O64       1.66006      .   S
    N0     O64       3.83733  1_556   S
    Zr61   O65       1.56696      .   S
    N12    O65       3.73220  1_556   S
    Zr61   O66       1.64161      .   S
    N8     O66       3.81425      .   S
    Zr67   O68       1.63353  1_455   S
    N7     O68       3.79585      .   S
    Zr67   O69       1.51878  1_455   S
    N5     O69       3.64556      .   S
    Zr67   O70       1.56149      .   S
    N17    O70       3.70535      .   S
    Zr67   O71       1.68191      .   S
    N3     O71       3.87322      .   S
    Zr67   O72       1.68389      .   S
    N1     O72       3.89346  1_545   S
    Zr67   O73       1.68397  1_455   S
    N2     O73       3.97185      .   S
    Zr74   O75       1.66022      .   S
    N16    O75       3.83623      .   S
    Zr74   O76       1.53751      .   S
    N4     O76       3.66452      .   S
    Zr74   O77       1.64374      .   S
    N17    O77       3.81857      .   S
    Zr74   O78       1.56849      .   S
    N1     O78       3.73587      .   S
    Zr74   O79       1.68625      .   S
    N6     O79       3.97015  1_565   S
    Zr80   O81       1.66936      .   S
    N15    O81       3.85350      .   S
    Zr80   O82       1.65760      .   S
    N22    O82       3.82964  1_554   S
    Zr80   O83       1.53965      .   S
    N3     O83       3.66945      .   S
    Zr80   O84       1.56515      .   S
    N14    O84       3.72666  1_554   S
    Zr80   O85       1.68200      .   S
    N11    O85       3.96223  1_545   S
    Zr80   O86       1.64185      .   S
    N10    O86       3.81638      .   S
    Zr87   O88       1.66165      .   S
    N18    O88       3.84058      .   S
    Zr87   O89       1.56708      .   S
    N7     O89       3.73284      .   S
    Zr87   O90       1.53712      .   S
    N21    O90       3.66377      .   S
    Zr87   O91       1.64473      .   S
    N2     O91       3.82029      .   S
    Zr87   O92       1.68467      .   S
    N23    O92       3.96595  1_545   S
    Zr93   O94       1.66286      .   S
    N12    O94       3.84669  1_556   S
    Zr93   O95       1.64985      .   S
    N14    O95       3.83425  1_565   S
    Zr93   O96       1.53939      .   S
    N9     O96       3.66841      .   S
    Zr93   O97       1.69669      .   S
    N8     O97       3.99130      .   S
    Zr93   O98       1.54057      .   S
    N10    O98       3.67586  1_556   S
    Zr99   O100      1.64375      .   S
    N18    O100      3.81840      .   S
    Zr99   O101      1.65996      .   S
    N2     O101      3.83555      .   S
    Zr99   O102      1.68596      .   S
    N7     O102      3.97053  1_565   S
    Zr99   O103      1.53731      .   S
    N20    O103      3.66423      .   S
    Zr99   O104      1.56844      .   S
    N23    O104      3.73580      .   S
    Zr105  O106      1.66017  1_655   S
    N11    O106      3.84003  1_556   S
    Zr105  O107      1.53887  1_655   S
    N19    O107      3.66721      .   S
    Zr105  O108      1.69809  1_655   S
    N22    O108      3.99404      .   S
    Zr105  O109      1.65230      .   S
    N13    O109      3.83773  1_565   S
    Zr105  O110      1.54039      .   S
    N0     O110      3.67561  1_556   S
    Zr111  O112      1.69339  1_655   S
    N17    O112      3.98522      .   S
    Zr111  O113      1.54655      .   S
    N2     O113      3.69435      .   S
    Zr111  O114      1.65782  1_655   S
    N1     O114      3.83661      .   S
    Zr111  O115      1.54221  1_655   S
    N19    O115      3.67447      .   S
    Zr111  O116      1.65570      .   S
    N7     O116      3.84670  1_565   S
    Zr117  O118      1.63512  1_455   S
    N13    O118      3.79882  1_554   S
    Zr117  O119      1.54940      .   S
    N22    O119      3.68315  1_554   S
    Zr117  O120      1.68916  1_455   S
    N0     O120      3.98128      .   S
    Zr117  O121      1.67341      .   S
    N11    O121      3.86930  1_545   S
    Zr117  O122      1.69099      .   S
    N3     O122      3.89543      .   S
    Zr117  O123      1.51980  1_455   S
    N5     O123      3.64698      .   S
    N9     O124      3.82646      .   S
    Zr61   O124      1.66393      .   S
    N9     O125      3.83585      .   S
    Zr99   O125      1.67100      .   S
    Zr37   O126      1.67122      .   S
    N4     O126      3.83745      .   S
    Zr43   O127      1.66998      .   S
    N15    O127      3.83635      .   S
    N20    O128      3.83227      .   S
    Zr105  O128      1.66735      .   S
    N20    O129      3.83787      .   S
    Zr111  O129      1.67140      .   S
    Zr87   O130      1.66881      .   S
    N5     O130      3.83252      .   S
    N21    O131      3.83371      .   S
    Zr24   O131      1.66699      .   S
    Zr55   O132      1.66482      .   S
    N19    O132      3.82770      .   S
    N19    O133      3.83545      .   S
    Zr74   O133      1.67077      .   S
    N5     O134      3.83459      .   S
    Zr49   O134      1.66941      .   S
    N4     O135      3.83395      .   S
    Zr93   O135      1.66813      .   S
