# CIF file generated by openbabel 2.4.90, see http://openbabel.sf.net
data_I
_chemical_name_common ''
_cell_length_a 21.511
_cell_length_b 12.442
_cell_length_c 26.091
_cell_angle_alpha 91.126
_cell_angle_beta 89.998
_cell_angle_gamma 89.989
_space_group_name_H-M_alt 'P 1'
_space_group_name_Hall 'P 1'
loop_
    _symmetry_equiv_pos_as_xyz
    x,y,z
loop_
    _atom_site_label
    _atom_site_type_symbol
    _atom_site_fract_x
    _atom_site_fract_y
    _atom_site_fract_z
    _atom_site_occupancy
    H0      H    0.27963   0.76736   0.56983   1.000
    H1      H    0.77939   0.76765   0.57016   1.000
    H2      H    0.27948   0.96171   0.60081   1.000
    H3      H    0.77973   0.96193   0.60120   1.000
    H4      H    0.37934   0.04445   0.63018   1.000
    H5      H    0.87987   0.04403   0.63036   1.000
    H6      H    0.13789   0.72309   0.62010   1.000
    H7      H    0.63802   0.72501   0.62065   1.000
    H8      H    0.12416   0.53788   0.58532   1.000
    H9      H    0.62482   0.53972   0.58585   1.000
    H10     H    0.01695   0.47359   0.56096   1.000
    H11     H    0.51776   0.47473   0.56126   1.000
    H12     H    0.49544   0.02228   0.64587   1.000
    H13     H    0.99597   0.02113   0.64578   1.000
    H14     H    0.08893   0.90439   0.64286   1.000
    H15     H    0.58864   0.90610   0.64322   1.000
    H16     H    0.27986   0.73262   0.93012   1.000
    H17     H    0.77939   0.73259   0.92970   1.000
    H18     H    0.27985   0.53832   0.89908   1.000
    H19     H    0.77973   0.53834   0.89860   1.000
    H20     H    0.37977   0.45579   0.86963   1.000
    H21     H    0.87988   0.45616   0.86947   1.000
    H22     H    0.13791   0.77687   0.87987   1.000
    H23     H    0.63810   0.77588   0.87887   1.000
    H24     H    0.12417   0.96210   0.91465   1.000
    H25     H    0.62476   0.96107   0.91300   1.000
    H26     H    0.01694   0.02641   0.93901   1.000
    H27     H    0.51773   0.02568   0.93862   1.000
    H28     H    0.49584   0.47820   0.85388   1.000
    H29     H    0.99599   0.47893   0.85413   1.000
    H30     H    0.08897   0.59560   0.85710   1.000
    H31     H    0.58891   0.59466   0.85639   1.000
    H32     H    0.22063   0.23240   0.42980   1.000
    H33     H    0.72039   0.23268   0.43013   1.000
    H34     H    0.22028   0.03810   0.39877   1.000
    H35     H    0.72053   0.03833   0.39917   1.000
    H36     H    0.12014   0.95601   0.36961   1.000
    H37     H    0.62067   0.95558   0.36980   1.000
    H38     H    0.36199   0.27504   0.37932   1.000
    H39     H    0.86212   0.27695   0.37988   1.000
    H40     H    0.37520   0.46033   0.41412   1.000
    H41     H    0.87586   0.46217   0.41465   1.000
    H42     H    0.48225   0.52532   0.43870   1.000
    H43     H    0.98308   0.52645   0.43900   1.000
    H44     H    0.00405   0.97890   0.35420   1.000
    H45     H    0.50457   0.97775   0.35411   1.000
    H46     H    0.41137   0.09395   0.35675   1.000
    H47     H    0.91108   0.09565   0.35710   1.000
    H48     H    0.22063   0.26746   0.07026   1.000
    H49     H    0.72016   0.26743   0.06985   1.000
    H50     H    0.22030   0.46171   0.10137   1.000
    H51     H    0.72017   0.46173   0.10089   1.000
    H52     H    0.12014   0.54387   0.13051   1.000
    H53     H    0.62025   0.54426   0.13034   1.000
    H54     H    0.36192   0.22416   0.12110   1.000
    H55     H    0.86211   0.22317   0.12010   1.000
    H56     H    0.37526   0.03898   0.08617   1.000
    H57     H    0.87585   0.03794   0.08532   1.000
    H58     H    0.48229   0.97437   0.06134   1.000
    H59     H    0.98308   0.97363   0.06096   1.000
    H60     H    0.00403   0.52111   0.14585   1.000
    H61     H    0.50418   0.52185   0.14609   1.000
    H62     H    0.41111   0.40538   0.14358   1.000
    H63     H    0.91106   0.40443   0.14288   1.000
    C64     C    0.57254   0.28926   0.10031   1.000
    C65     C    0.01865   0.22072   0.09827   1.000
    C66     C    0.51831   0.22132   0.09864   1.000
    C67     C    0.46003   0.26382   0.11438   1.000
    C68     C    0.96024   0.26308   0.11379   1.000
    C69     C    0.40798   0.19483   0.11025   1.000
    C70     C    0.90827   0.19398   0.10944   1.000
    C71     C    0.41548   0.09119   0.09133   1.000
    C72     C    0.32185   0.80674   0.58392   1.000
    C73     C    0.82174   0.80675   0.58410   1.000
    C74     C    0.32229   0.91485   0.60090   1.000
    C75     C    0.82245   0.91483   0.60117   1.000
    C76     C    0.37756   0.96041   0.61759   1.000
    C77     C    0.87787   0.96001   0.61774   1.000
    C78     C    0.43241   0.89803   0.61763   1.000
    C79     C    0.93260   0.89731   0.61763   1.000
    C80     C    0.42727   0.78954   0.60016   1.000
    C81     C    0.92719   0.78887   0.60013   1.000
    C82     C    0.48158   0.72173   0.59840   1.000
    C83     C    0.98135   0.72074   0.59825   1.000
    C84     C    0.03976   0.76306   0.61377   1.000
    C85     C    0.53985   0.76441   0.61408   1.000
    C86     C    0.09174   0.69393   0.60943   1.000
    C87     C    0.59196   0.69556   0.60987   1.000
    C88     C    0.08404   0.59029   0.59056   1.000
    C89     C    0.58454   0.59185   0.59101   1.000
    C90     C    0.02430   0.55460   0.57639   1.000
    C91     C    0.52493   0.55579   0.57670   1.000
    C92     C    0.49189   0.93837   0.63333   1.000
    C93     C    0.99220   0.93727   0.63321   1.000
    C94     C    0.04361   0.87268   0.63142   1.000
    C95     C    0.54342   0.87409   0.63169   1.000
    C96     C    0.32210   0.69334   0.91599   1.000
    C97     C    0.82174   0.69346   0.91572   1.000
    C98     C    0.32262   0.58525   0.89898   1.000
    C99     C    0.82245   0.58540   0.89867   1.000
    C100    C    0.37791   0.53982   0.88225   1.000
    C101    C    0.87787   0.54017   0.88210   1.000
    C102    C    0.43271   0.60231   0.88217   1.000
    C103    C    0.93262   0.60281   0.88227   1.000
    C104    C    0.42748   0.71078   0.89966   1.000
    C105    C    0.92720   0.71123   0.89979   1.000
    C106    C    0.48171   0.77872   0.90133   1.000
    C107    C    0.98137   0.77932   0.90170   1.000
    C108    C    0.03978   0.73696   0.88618   1.000
    C109    C    0.53999   0.73622   0.88550   1.000
    C110    C    0.09176   0.80606   0.89053   1.000
    C111    C    0.59204   0.80521   0.88972   1.000
    C112    C    0.08405   0.90970   0.90940   1.000
    C113    C    0.58454   0.90886   0.90864   1.000
    C114    C    0.02431   0.94542   0.92357   1.000
    C115    C    0.52493   0.94472   0.92300   1.000
    C116    C    0.49220   0.56211   0.86641   1.000
    C117    C    0.99223   0.56280   0.86671   1.000
    C118    C    0.04364   0.62735   0.86852   1.000
    C119    C    0.54366   0.62655   0.86790   1.000
    C120    C    0.17828   0.19329   0.41581   1.000
    C121    C    0.67816   0.19329   0.41605   1.000
    C122    C    0.17757   0.08521   0.39880   1.000
    C123    C    0.67772   0.08518   0.39900   1.000
    C124    C    0.12215   0.04002   0.38223   1.000
    C125    C    0.62245   0.03963   0.38239   1.000
    C126    C    0.06742   0.10273   0.38234   1.000
    C127    C    0.56760   0.10201   0.38234   1.000
    C128    C    0.07283   0.21117   0.39984   1.000
    C129    C    0.57274   0.21050   0.39980   1.000
    C130    C    0.01867   0.27930   0.40172   1.000
    C131    C    0.51843   0.27831   0.40153   1.000
    C132    C    0.46016   0.23564   0.38589   1.000
    C133    C    0.96026   0.23698   0.38620   1.000
    C134    C    0.40805   0.30449   0.39009   1.000
    C135    C    0.90828   0.30611   0.39054   1.000
    C136    C    0.41548   0.40820   0.40896   1.000
    C137    C    0.91598   0.40975   0.40941   1.000
    C138    C    0.47509   0.44426   0.42326   1.000
    C139    C    0.97572   0.44544   0.42358   1.000
    C140    C    0.00781   0.06277   0.36670   1.000
    C141    C    0.50812   0.06166   0.36665   1.000
    C142    C    0.45659   0.12596   0.36828   1.000
    C143    C    0.95641   0.12736   0.36855   1.000
    C144    C    0.17828   0.30659   0.08425   1.000
    C145    C    0.67792   0.30671   0.08398   1.000
    C146    C    0.17757   0.41464   0.10130   1.000
    C147    C    0.67740   0.41480   0.10099   1.000
    C148    C    0.12215   0.45987   0.11786   1.000
    C149    C    0.62211   0.46022   0.11772   1.000
    C150    C    0.06740   0.39723   0.11770   1.000
    C151    C    0.56731   0.39773   0.11780   1.000
    C152    C    0.07282   0.28881   0.10018   1.000
    C153    C    0.91597   0.09034   0.09056   1.000
    C154    C    0.47509   0.05532   0.07689   1.000
    C155    C    0.97572   0.05462   0.07639   1.000
    C156    C    0.00779   0.43724   0.13327   1.000
    C157    C    0.50782   0.43793   0.13356   1.000
    C158    C    0.45635   0.37349   0.13199   1.000
    C159    C    0.95639   0.37269   0.13145   1.000
    N160    N    0.37292   0.74617   0.58373   1.000
    N161    N    0.87269   0.74587   0.58382   1.000
    N162    N    0.47476   0.61880   0.58067   1.000
    N163    N    0.97425   0.61787   0.58047   1.000
    N164    N    0.37312   0.75402   0.91615   1.000
    N165    N    0.87270   0.75428   0.91609   1.000
    N166    N    0.47482   0.88161   0.91916   1.000
    N167    N    0.97426   0.88218   0.91948   1.000
    N168    N    0.12733   0.25417   0.41615   1.000
    N169    N    0.62709   0.25387   0.41623   1.000
    N170    N    0.02577   0.38217   0.41950   1.000
    N171    N    0.52525   0.38124   0.41930   1.000
    N172    N    0.12732   0.24577   0.08380   1.000
    N173    N    0.62690   0.24603   0.08382   1.000
    N174    N    0.02576   0.11786   0.08040   1.000
    N175    N    0.52520   0.11843   0.08081   1.000
loop_
    _geom_bond_atom_site_label_1
    _geom_bond_atom_site_label_2
    _geom_bond_distance
    _geom_bond_site_symmetry_2
    _ccdc_geom_bond_type
    H59    C155      1.08936  1_565   S
    H58    C154      1.08952  1_565   S
    H49    C145      1.09235      .   S
    H48    C144      1.09234      .   S
    C155   N174      1.33648  1_655   S
    C155   C153      1.40679      .   S
    C154   N175      1.33648      .   S
    C154   C71       1.40663      .   S
    N174   C65       1.36203      .   S
    N175   C66       1.36152      .   S
    N172   C144      1.33206      .   S
    N172   C152      1.35450      .   S
    N173   C145      1.33204      .   S
    N173   C64       1.35373      .   S
    C145   C147      1.40790      .   S
    C144   C146      1.40783      .   S
    H57    C153      1.08870      .   S
    H56    C71       1.08882      .   S
    C153   C70       1.38123      .   S
    C71    C69       1.38111      .   S
    C65    C152      1.44098      .   S
    C65    C68       1.41837  1_455   S
    C66    C64       1.44095      .   S
    C66    C67       1.41816      .   S
    C152   C150      1.42054      .   S
    C64    C151      1.42059      .   S
    H51    C147      1.08981      .   S
    C147   C149      1.38373      .   S
    C146   H50       1.08979      .   S
    C146   C148      1.38375      .   S
    C70    C68       1.41365      .   S
    C70    H55       1.09131      .   S
    C69    C67       1.41368      .   S
    C69    H54       1.09131      .   S
    C68    C159      1.43331      .   S
    C67    C158      1.43335      .   S
    C150   C148      1.41226      .   S
    C150   C156      1.43137      .   S
    C149   C151      1.41225      .   S
    C149   H53       1.09072      .   S
    C151   C157      1.43133      .   S
    C148   H52       1.09073      .   S
    C159   C156      1.36710  1_655   S
    C159   H63       1.09132      .   S
    C158   C157      1.36709      .   S
    C158   H62       1.09136      .   S
    C156   H60       1.09071      .   S
    C157   H61       1.09071      .   S
    H45    C141      1.09062  1_565   S
    H44    C140      1.09011  1_565   S
    H46    C142      1.09131      .   S
    H47    C143      1.09139      .   S
    C141   C142      1.36711      .   S
    C141   C127      1.43131      .   S
    C140   C143      1.36712  1_455   S
    C140   C126      1.43176      .   S
    C142   C132      1.43335      .   S
    C143   C133      1.43334      .   S
    H36    C124      1.09063  1_565   S
    H37    C125      1.09055  1_565   S
    H38    C134      1.09130      .   S
    H39    C135      1.09130      .   S
    C124   C126      1.41229      .   S
    C124   C122      1.38376      .   S
    C127   C125      1.41228      .   S
    C127   C129      1.42049      .   S
    C126   C128      1.42061      .   S
    C125   C123      1.38312      .   S
    C132   C134      1.41369      .   S
    C132   C131      1.41819      .   S
    C133   C135      1.41368      .   S
    C133   C130      1.41835  1_655   S
    C134   C136      1.38129      .   S
    C135   C137      1.38119      .   S
    H34    C122      1.08980      .   S
    C122   C120      1.40782      .   S
    C123   H35       1.08985      .   S
    C123   C121      1.40848      .   S
    C129   C131      1.44112      .   S
    C129   N169      1.35379      .   S
    C128   C130      1.44105      .   S
    C128   N168      1.35388      .   S
    C131   N171      1.36135      .   S
    C130   N170      1.36142      .   S
    C136   H40       1.08888      .   S
    C136   C138      1.40656      .   S
    C137   H41       1.08873      .   S
    C137   C139      1.40678      .   S
    C120   N168      1.33209      .   S
    C120   H32       1.09233      .   S
    C121   N169      1.33208      .   S
    C121   H33       1.09238      .   S
    N171   C138      1.33660      .   S
    N170   C139      1.33667  1_455   S
    C138   H42       1.08960      .   S
    C139   H43       1.08947      .   S
    H10    C90       1.08954      .   S
    H11    C91       1.08963      .   S
    H0     C72       1.09240      .   S
    H1     C73       1.09190      .   S
    C90    N163      1.33668  1_455   S
    C90    C88       1.40676      .   S
    C91    N162      1.33659      .   S
    C91    C89       1.40662      .   S
    N163   C83       1.36139      .   S
    N162   C82       1.36100      .   S
    N160   C72       1.33209      .   S
    N160   C80       1.35376      .   S
    N161   C73       1.33210      .   S
    N161   C81       1.35388      .   S
    C72    C74       1.40794      .   S
    C73    C75       1.40826      .   S
    H8     C88       1.08873      .   S
    H9     C89       1.08888      .   S
    C88    C86       1.38115      .   S
    C89    C87       1.38122      .   S
    C83    C81       1.44105      .   S
    C83    C84       1.41833  1_655   S
    C82    C80       1.44116      .   S
    C82    C85       1.41848      .   S
    C81    C79       1.42060      .   S
    C80    C78       1.42054      .   S
    H2     C74       1.08984      .   S
    C74    C76       1.38371      .   S
    C75    H3        1.08981      .   S
    C75    C77       1.38374      .   S
    C86    C84       1.41368      .   S
    C86    H6        1.09137      .   S
    C87    C85       1.41368      .   S
    C87    H7        1.09134      .   S
    C84    C94       1.43332      .   S
    C85    C95       1.43337      .   S
    C76    C78       1.41228      .   S
    C76    H4        1.09057  1_565   S
    C78    C92       1.43133      .   S
    C79    C77       1.41229      .   S
    C79    C93       1.43131      .   S
    C77    H5        1.09060  1_565   S
    C94    C93       1.36710  1_455   S
    C94    H14       1.09130      .   S
    C95    C92       1.36707      .   S
    C95    H15       1.09128      .   S
    C93    H13       1.09059  1_565   S
    C92    H12       1.09064  1_565   S
    H28    C116      1.09072      .   S
    H29    C117      1.09072      .   S
    H31    C119      1.09081      .   S
    H30    C118      1.09128      .   S
    C116   C119      1.36706      .   S
    C116   C102      1.43132      .   S
    C117   C118      1.36708  1_655   S
    C117   C103      1.43134      .   S
    C119   C109      1.43327      .   S
    C118   C108      1.43334      .   S
    H21    C101      1.09060      .   S
    H20    C100      1.09073      .   S
    H23    C111      1.09132      .   S
    H22    C110      1.09133      .   S
    C101   C103      1.41226      .   S
    C101   C99       1.38387      .   S
    C102   C100      1.41226      .   S
    C102   C104      1.42060      .   S
    C100   C98       1.38372      .   S
    C103   C105      1.42055      .   S
    C109   C111      1.41384      .   S
    C109   C106      1.41884      .   S
    C108   C110      1.41363      .   S
    C108   C107      1.41840  1_455   S
    C111   C113      1.38113      .   S
    C110   C112      1.38115      .   S
    H19    C99       1.08977      .   S
    C99    C97       1.40784      .   S
    C98    H18       1.08982      .   S
    C98    C96       1.40790      .   S
    C104   C106      1.44097      .   S
    C104   N164      1.35372      .   S
    C105   C107      1.44098      .   S
    C105   N165      1.35386      .   S
    C106   N166      1.36151      .   S
    C107   N167      1.36130      .   S
    C113   H25       1.08670      .   S
    C113   C115      1.40609      .   S
    C112   H24       1.08874      .   S
    C112   C114      1.40682      .   S
    C97    N165      1.33205      .   S
    C97    H17       1.09228      .   S
    C96    N164      1.33205      .   S
    C96    H16       1.09236      .   S
    N166   C115      1.33636      .   S
    N167   C114      1.33664  1_655   S
    C115   H27       1.09016  1_565   S
    C114   H26       1.08946  1_565   S
