# CIF file generated by openbabel 2.4.90, see http://openbabel.sf.net
data_I
_chemical_name_common ''
_cell_length_a 21.511
_cell_length_b 12.442
_cell_length_c 26.091
_cell_angle_alpha 91.126
_cell_angle_beta 89.998
_cell_angle_gamma 89.989
_space_group_name_H-M_alt 'P 1'
_space_group_name_Hall 'P 1'
loop_
    _symmetry_equiv_pos_as_xyz
    x,y,z
loop_
    _atom_site_label
    _atom_site_type_symbol
    _atom_site_fract_x
    _atom_site_fract_y
    _atom_site_fract_z
    _atom_site_occupancy
    N0      N    0.29067   0.85364   0.29526   1.000
    N1      N    0.78957   0.85373   0.29525   1.000
    N2      N    0.50001   0.00002   0.49998   1.000
    N3      N    0.00001   0.00002   0.49998   1.000
    N4      N    0.50001   0.50002   0.99994   1.000
    N5      N    0.00001   0.50002   0.99998   1.000
    N6      N    0.21045   0.14632   0.70467   1.000
    N7      N    0.70935   0.14640   0.70470   1.000
    N8      N    0.70961   0.35379   0.79532   1.000
    N9      N    0.21036   0.35375   0.79527   1.000
    N10     N    0.78966   0.64629   0.20467   1.000
    N11     N    0.29041   0.64625   0.20464   1.000
    Zr12    Zr   0.38347   0.57409   0.55987   1.000
    O13     O    0.35330   0.64802   0.48603   1.000
    O14     O    0.41564   0.41155   0.54211   1.000
    O15     O    0.33360   0.51319   0.62625   1.000
    Zr16    Zr   0.88244   0.92606   0.94011   1.000
    O17     O    0.85227   0.85205   0.01393   1.000
    O18     O    0.91487   0.08858   0.95786   1.000
    O19     O    0.83256   0.98693   0.87373   1.000
    Zr20    Zr   0.74944   0.49991   0.49998   1.000
    O21     O    0.72977   0.39824   0.55136   1.000
    O22     O    0.73782   0.46847   0.58377   1.000
    O23     O    0.76912   0.60169   0.44860   1.000
    O24     O    0.67982   0.64123   0.49772   1.000
    O25     O    0.81937   0.35859   0.50223   1.000
    O26     O    0.76116   0.53140   0.41620   1.000
    Zr27    Zr   0.11757   0.42602   0.44012   1.000
    O28     O    0.14777   0.35203   0.51394   1.000
    O29     O    0.16738   0.48687   0.37373   1.000
    O30     O    0.08515   0.58856   0.45787   1.000
    Zr31    Zr   0.25055   0.99990   0.99998   1.000
    O32     O    0.23887   0.03141   0.91620   1.000
    O33     O    0.18062   0.85858   0.00223   1.000
    O34     O    0.27014   0.89817   0.05134   1.000
    O35     O    0.26225   0.96842   0.08375   1.000
    O36     O    0.23085   0.10169   0.94860   1.000
    O37     O    0.32015   0.14126   0.99771   1.000
    Zr38    Zr   0.25057   0.50012   0.49999   1.000
    O39     O    0.23090   0.39834   0.55136   1.000
    O40     O    0.26220   0.53157   0.41619   1.000
    O41     O    0.27024   0.60179   0.44860   1.000
    O42     O    0.32019   0.35879   0.50225   1.000
    O43     O    0.23885   0.46863   0.58376   1.000
    O44     O    0.18064   0.64144   0.49774   1.000
    Zr45    Zr   0.11757   0.07397   0.05980   1.000
    O46     O    0.16745   0.01310   0.12620   1.000
    O47     O    0.08514   0.91145   0.04207   1.000
    O48     O    0.14774   0.14798   0.98599   1.000
    Zr49    Zr   0.61649   0.07402   0.05981   1.000
    O50     O    0.64677   0.14805   0.98602   1.000
    O51     O    0.66634   0.01312   0.12620   1.000
    O52     O    0.58434   0.91159   0.04189   1.000
    Zr53    Zr   0.61655   0.42594   0.44010   1.000
    O54     O    0.64671   0.35201   0.51394   1.000
    O55     O    0.58438   0.58848   0.45786   1.000
    O56     O    0.66642   0.48684   0.37372   1.000
    Zr57    Zr   0.74946   0.00011   0.00000   1.000
    O58     O    0.73776   0.03161   0.91621   1.000
    O59     O    0.72987   0.10186   0.94864   1.000
    O60     O    0.76114   0.96862   0.08376   1.000
    O61     O    0.81939   0.14144   0.99775   1.000
    O62     O    0.67986   0.85877   0.00225   1.000
    O63     O    0.76915   0.89834   0.05137   1.000
    Zr64    Zr   0.88244   0.57400   0.55985   1.000
    O65     O    0.85225   0.64800   0.48602   1.000
    O66     O    0.83264   0.51316   0.62624   1.000
    O67     O    0.91487   0.41147   0.54210   1.000
    Zr68    Zr   0.38353   0.92600   0.94016   1.000
    O69     O    0.35325   0.85198   0.01395   1.000
    O70     O    0.41568   0.08844   0.95806   1.000
    O71     O    0.33367   0.98692   0.87376   1.000
loop_
    _geom_bond_atom_site_label_1
    _geom_bond_atom_site_label_2
    _geom_bond_distance
    _geom_bond_site_symmetry_2
    _ccdc_geom_bond_type
    Zr12   O13       2.24691      .   S
    N0     O13       5.79946      .   S
    Zr12   O14       2.17849      .   S
    N2     O14       5.52215      .   S
    Zr12   O15       2.18533      .   S
    N9     O15       5.54585      .   S
    Zr16   O17       2.24697  1_556   S
    N10    O17       5.79949      .   S
    Zr16   O18       2.18028  1_565   S
    N5     O18       5.52725  1_455   S
    Zr16   O19       2.18531      .   S
    N7     O19       5.54575  1_545   S
    Zr20   O21       1.90872      .   S
    N7     O21       5.14868      .   S
    Zr20   O22       2.24243      .   S
    N8     O22       5.76015      .   S
    Zr20   O23       1.90967      .   S
    N1     O23       5.15065      .   S
    Zr20   O24       2.31110      .   S
    N2     O24       5.90545  1_545   S
    Zr20   O25       2.31537      .   S
    N3     O25       5.91514  1_455   S
    Zr20   O26       2.24252      .   S
    N10    O26       5.76112      .   S
    Zr27   O28       2.24690      .   S
    N6     O28       5.79947      .   S
    Zr27   O29       2.18485      .   S
    N11    O29       5.54473      .   S
    Zr27   O30       2.18014      .   S
    N3     O30       5.52673  1_545   S
    Zr31   O32       2.24257  1_565   S
    N6     O32       5.76069      .   S
    Zr31   O33       2.31575  1_556   S
    N5     O33       5.91584  1_556   S
    Zr31   O34       1.90834  1_556   S
    N11    O34       5.14832      .   S
    Zr31   O35       2.24223  1_556   S
    N0     O35       5.75989      .   S
    Zr31   O36       1.90963  1_565   S
    N9     O36       5.15046      .   S
    Zr31   O37       2.31159  1_565   S
    N4     O37       5.90704      .   S
    Zr38   O39       1.90939      .   S
    N6     O39       5.14979      .   S
    Zr38   O40       2.24266      .   S
    N11    O40       5.76020      .   S
    Zr38   O41       1.90885      .   S
    N0     O41       5.14902      .   S
    Zr38   O42       2.31110      .   S
    N2     O42       5.90544      .   S
    Zr38   O43       2.24229      .   S
    N9     O43       5.76044      .   S
    Zr38   O44       2.31539      .   S
    N3     O44       5.91515  1_545   S
    Zr45   O46       2.18571      .   S
    N0     O46       5.54630  1_565   S
    Zr45   O47       2.18011  1_545   S
    N5     O47       5.52693  1_556   S
    Zr45   O48       2.24668  1_554   S
    N9     O48       5.79930      .   S
    Zr49   O50       2.24703  1_554   S
    N8     O50       5.79972      .   S
    Zr49   O51       2.18533      .   S
    N1     O51       5.54586  1_565   S
    Zr49   O52       2.17829  1_545   S
    N4     O52       5.52210  1_556   S
    Zr53   O54       2.24683      .   S
    N7     O54       5.79918      .   S
    Zr53   O55       2.17852      .   S
    N2     O55       5.52218  1_545   S
    Zr53   O56       2.18554      .   S
    N10    O56       5.54646      .   S
    Zr57   O58       2.24268  1_554   S
    N7     O58       5.76008      .   S
    Zr57   O59       1.90850  1_554   S
    N8     O59       5.14870      .   S
    Zr57   O60       2.24200  1_545   S
    N1     O60       5.75975      .   S
    Zr57   O61       2.31592  1_554   S
    N5     O61       5.91612  1_455   S
    Zr57   O62       2.31140  1_545   S
    N4     O62       5.90674  1_556   S
    Zr57   O63       1.90935  1_545   S
    N10    O63       5.14968      .   S
    Zr64   O65       2.24718      .   S
    N1     O65       5.80031      .   S
    Zr64   O66       2.18476      .   S
    N8     O66       5.54448      .   S
    Zr64   O67       2.18012      .   S
    N3     O67       5.52669  1_455   S
    Zr68   O69       2.24696  1_556   S
    N11    O69       5.79951      .   S
    Zr68   O70       2.17823  1_565   S
    N4     O70       5.52192      .   S
    Zr68   O71       2.18560      .   S
    N6     O71       5.54664  1_545   S
