# CIF file generated by openbabel 2.4.90, see http://openbabel.sf.net
data_I
_chemical_name_common ''
_cell_length_a 21.511
_cell_length_b 12.442
_cell_length_c 26.091
_cell_angle_alpha 91.126
_cell_angle_beta 89.998
_cell_angle_gamma 89.989
_space_group_name_H-M_alt 'P 1'
_space_group_name_Hall 'P 1'
loop_
    _symmetry_equiv_pos_as_xyz
    x,y,z
loop_
    _atom_site_label
    _atom_site_type_symbol
    _atom_site_fract_x
    _atom_site_fract_y
    _atom_site_fract_z
    _atom_site_occupancy
    N0      N    0.29067   0.85364   0.29526   1.000
    N1      N    0.78957   0.85373   0.29525   1.000
    N2      N    0.50001   0.00002   0.49998   1.000
    N3      N    0.00001   0.00002   0.49998   1.000
    N4      N    0.53208   0.28678   0.10463   1.000
    N5      N    0.03234   0.28622   0.10436   1.000
    N6      N    0.46774   0.78717   0.60442   1.000
    N7      N    0.03235   0.21378   0.39565   1.000
    N8      N    0.53227   0.21287   0.39554   1.000
    N9      N    0.96768   0.71382   0.89560   1.000
    N10     N    0.46794   0.71326   0.89529   1.000
    N11     N    0.50001   0.50002   0.99994   1.000
    N12     N    0.00001   0.50002   0.99998   1.000
    N13     N    0.21045   0.14632   0.70467   1.000
    N14     N    0.70935   0.14640   0.70470   1.000
    N15     N    0.70961   0.35379   0.79532   1.000
    N16     N    0.21036   0.35375   0.79527   1.000
    N17     N    0.78966   0.64629   0.20467   1.000
    N18     N    0.29041   0.64625   0.20464   1.000
    N19     N    0.96767   0.78626   0.60431   1.000
    Zr20    Zr   0.38347   0.57409   0.55987   1.000
    O21     O    0.35330   0.64802   0.48603   1.000
    O22     O    0.40322   0.64887   0.57399   1.000
    O23     O    0.41595   0.63295   0.57361   1.000
    O24     O    0.41564   0.41155   0.54211   1.000
    O25     O    0.33360   0.51319   0.62625   1.000
    Zr26    Zr   0.88244   0.92606   0.94011   1.000
    O27     O    0.85227   0.85205   0.01393   1.000
    O28     O    0.91487   0.08858   0.95786   1.000
    O29     O    0.83256   0.98693   0.87373   1.000
    O30     O    0.90253   0.85153   0.92598   1.000
    O31     O    0.91523   0.86751   0.92640   1.000
    Zr32    Zr   0.74944   0.49991   0.49998   1.000
    O33     O    0.72977   0.39824   0.55136   1.000
    O34     O    0.73782   0.46847   0.58377   1.000
    O35     O    0.76912   0.60169   0.44860   1.000
    O36     O    0.67982   0.64123   0.49772   1.000
    O37     O    0.81937   0.35859   0.50223   1.000
    O38     O    0.76116   0.53140   0.41620   1.000
    Zr39    Zr   0.11757   0.42602   0.44012   1.000
    O40     O    0.14777   0.35203   0.51394   1.000
    O41     O    0.16738   0.48687   0.37373   1.000
    O42     O    0.09748   0.35148   0.42601   1.000
    O43     O    0.08515   0.58856   0.45787   1.000
    O44     O    0.08479   0.36748   0.42643   1.000
    Zr45    Zr   0.25055   0.99990   0.99998   1.000
    O46     O    0.23887   0.03141   0.91620   1.000
    O47     O    0.18062   0.85858   0.00223   1.000
    O48     O    0.27014   0.89817   0.05134   1.000
    O49     O    0.26225   0.96842   0.08375   1.000
    O50     O    0.23085   0.10169   0.94860   1.000
    O51     O    0.32015   0.14126   0.99771   1.000
    Zr52    Zr   0.25057   0.50012   0.49999   1.000
    O53     O    0.23090   0.39834   0.55136   1.000
    O54     O    0.26220   0.53157   0.41619   1.000
    O55     O    0.27024   0.60179   0.44860   1.000
    O56     O    0.32019   0.35879   0.50225   1.000
    O57     O    0.23885   0.46863   0.58376   1.000
    O58     O    0.18064   0.64144   0.49774   1.000
    Zr59    Zr   0.11757   0.07397   0.05980   1.000
    O60     O    0.16745   0.01310   0.12620   1.000
    O61     O    0.08514   0.91145   0.04207   1.000
    O62     O    0.14774   0.14798   0.98599   1.000
    O63     O    0.09748   0.14850   0.07394   1.000
    O64     O    0.08479   0.13252   0.07351   1.000
    Zr65    Zr   0.61649   0.07402   0.05981   1.000
    O66     O    0.64677   0.14805   0.98602   1.000
    O67     O    0.66634   0.01312   0.12620   1.000
    O68     O    0.58434   0.91159   0.04189   1.000
    O69     O    0.59669   0.14871   0.07402   1.000
    O70     O    0.58398   0.13276   0.07364   1.000
    Zr71    Zr   0.61655   0.42594   0.44010   1.000
    O72     O    0.64671   0.35201   0.51394   1.000
    O73     O    0.59679   0.35117   0.42598   1.000
    O74     O    0.58406   0.36709   0.42636   1.000
    O75     O    0.58438   0.58848   0.45786   1.000
    O76     O    0.66642   0.48684   0.37372   1.000
    Zr77    Zr   0.74946   0.00011   0.00000   1.000
    O78     O    0.73776   0.03161   0.91621   1.000
    O79     O    0.72987   0.10186   0.94864   1.000
    O80     O    0.76114   0.96862   0.08376   1.000
    O81     O    0.81939   0.14144   0.99775   1.000
    O82     O    0.67986   0.85877   0.00225   1.000
    O83     O    0.76915   0.89834   0.05137   1.000
    Zr84    Zr   0.88244   0.57400   0.55985   1.000
    O85     O    0.90253   0.64855   0.57396   1.000
    O86     O    0.85225   0.64800   0.48602   1.000
    O87     O    0.91522   0.63255   0.57354   1.000
    O88     O    0.83264   0.51316   0.62624   1.000
    O89     O    0.91487   0.41147   0.54210   1.000
    Zr90    Zr   0.38353   0.92600   0.94016   1.000
    O91     O    0.35325   0.85198   0.01395   1.000
    O92     O    0.40333   0.85132   0.92594   1.000
    O93     O    0.41604   0.86727   0.92632   1.000
    O94     O    0.41568   0.08844   0.95806   1.000
    O95     O    0.33367   0.98692   0.87376   1.000
loop_
    _geom_bond_atom_site_label_1
    _geom_bond_atom_site_label_2
    _geom_bond_distance
    _geom_bond_site_symmetry_2
    _ccdc_geom_bond_type
    Zr20   O21       2.24691      .   S
    N0     O21       5.79946      .   S
    Zr20   O22       1.08104      .   S
    N6     O22       2.33781      .   S
    Zr20   O23       1.06906      .   S
    N6     O23       2.34734      .   S
    Zr20   O24       2.17849      .   S
    N2     O24       5.52215      .   S
    Zr20   O25       2.18533      .   S
    N16    O25       5.54585      .   S
    Zr26   O27       2.24697  1_556   S
    N17    O27       5.79949      .   S
    Zr26   O28       2.18028  1_565   S
    N12    O28       5.52725  1_455   S
    Zr26   O29       2.18531      .   S
    N14    O29       5.54575  1_545   S
    Zr26   O30       1.08121      .   S
    N9     O30       2.33945      .   S
    Zr26   O31       1.07023      .   S
    N9     O31       2.34823      .   S
    Zr32   O33       1.90872      .   S
    N14    O33       5.14868      .   S
    Zr32   O34       2.24243      .   S
    N15    O34       5.76015      .   S
    Zr32   O35       1.90967      .   S
    N1     O35       5.15065      .   S
    Zr32   O36       2.31110      .   S
    N2     O36       5.90545  1_545   S
    Zr32   O37       2.31537      .   S
    N3     O37       5.91514  1_455   S
    Zr32   O38       2.24252      .   S
    N17    O38       5.76112      .   S
    Zr39   O40       2.24690      .   S
    N13    O40       5.79947      .   S
    Zr39   O41       2.18485      .   S
    N18    O41       5.54473      .   S
    Zr39   O42       1.08128      .   S
    N7     O42       2.33950      .   S
    Zr39   O43       2.18014      .   S
    N3     O43       5.52673  1_545   S
    Zr39   O44       1.07022      .   S
    N7     O44       2.34834      .   S
    Zr45   O46       2.24257  1_565   S
    N13    O46       5.76069      .   S
    Zr45   O47       2.31575  1_556   S
    N12    O47       5.91584  1_556   S
    Zr45   O48       1.90834  1_556   S
    N18    O48       5.14832      .   S
    Zr45   O49       2.24223  1_556   S
    N0     O49       5.75989      .   S
    Zr45   O50       1.90963  1_565   S
    N16    O50       5.15046      .   S
    Zr45   O51       2.31159  1_565   S
    N11    O51       5.90704      .   S
    Zr52   O53       1.90939      .   S
    N13    O53       5.14979      .   S
    Zr52   O54       2.24266      .   S
    N18    O54       5.76020      .   S
    Zr52   O55       1.90885      .   S
    N0     O55       5.14902      .   S
    Zr52   O56       2.31110      .   S
    N2     O56       5.90544      .   S
    Zr52   O57       2.24229      .   S
    N16    O57       5.76044      .   S
    Zr52   O58       2.31539      .   S
    N3     O58       5.91515  1_545   S
    Zr59   O60       2.18571      .   S
    N0     O60       5.54630  1_565   S
    Zr59   O61       2.18011  1_545   S
    N12    O61       5.52693  1_556   S
    Zr59   O62       2.24668  1_554   S
    N16    O62       5.79930      .   S
    Zr59   O63       1.08133      .   S
    N5     O63       2.33981      .   S
    Zr59   O64       1.07031      .   S
    N5     O64       2.34862      .   S
    Zr65   O66       2.24703  1_554   S
    N15    O66       5.79972      .   S
    Zr65   O67       2.18533      .   S
    N1     O67       5.54586  1_565   S
    Zr65   O68       2.17829  1_545   S
    N11    O68       5.52210  1_556   S
    Zr65   O69       1.08107      .   S
    N4     O69       2.33787      .   S
    Zr65   O70       1.06908      .   S
    N4     O70       2.34743      .   S
    Zr71   O72       2.24683      .   S
    N14    O72       5.79918      .   S
    Zr71   O73       1.08100      .   S
    N8     O73       2.33774      .   S
    Zr71   O74       1.06902      .   S
    N8     O74       2.34729      .   S
    Zr71   O75       2.17852      .   S
    N2     O75       5.52218  1_545   S
    Zr71   O76       2.18554      .   S
    N17    O76       5.54646      .   S
    Zr77   O78       2.24268  1_554   S
    N14    O78       5.76008      .   S
    Zr77   O79       1.90850  1_554   S
    N15    O79       5.14870      .   S
    Zr77   O80       2.24200  1_545   S
    N1     O80       5.75975      .   S
    Zr77   O81       2.31592  1_554   S
    N12    O81       5.91612  1_455   S
    Zr77   O82       2.31140  1_545   S
    N11    O82       5.90674  1_556   S
    Zr77   O83       1.90935  1_545   S
    N17    O83       5.14968      .   S
    Zr84   O85       1.08135      .   S
    N19    O85       2.33960      .   S
    Zr84   O86       2.24718      .   S
    N1     O86       5.80031      .   S
    Zr84   O87       1.07029      .   S
    N19    O87       2.34844      .   S
    Zr84   O88       2.18476      .   S
    N15    O88       5.54448      .   S
    Zr84   O89       2.18012      .   S
    N3     O89       5.52669  1_455   S
    Zr90   O91       2.24696  1_556   S
    N18    O91       5.79951      .   S
    Zr90   O92       1.08112      .   S
    N10    O92       2.33811      .   S
    Zr90   O93       1.06915      .   S
    N10    O93       2.34765      .   S
    Zr90   O94       2.17823  1_565   S
    N11    O94       5.52192      .   S
    Zr90   O95       2.18560      .   S
    N13    O95       5.54664  1_545   S
