# CIF file generated by openbabel 2.4.90, see http://openbabel.sf.net
data_I
_chemical_name_common 'VESTA_phase_1'
_cell_length_a 16.985
_cell_length_b 20.631
_cell_length_c 14.176
_cell_angle_alpha 67.192
_cell_angle_beta 75.133
_cell_angle_gamma 76.554
_space_group_name_H-M_alt 'P 1'
_space_group_name_Hall 'P 1'
loop_
    _symmetry_equiv_pos_as_xyz
    x,y,z
loop_
    _atom_site_label
    _atom_site_type_symbol
    _atom_site_fract_x
    _atom_site_fract_y
    _atom_site_fract_z
    _atom_site_occupancy
    Zn0     Zn   0.46414   0.21717   0.15353   1.000
    Zn1     Zn   0.46414   0.71716   0.15355   1.000
    Zn2     Zn   0.96415   0.21716   0.15353   1.000
    Zn3     Zn   0.96413   0.71716   0.15354   1.000
    Zn4     Zn   0.03587   0.28284   0.84691   1.000
    Zn5     Zn   0.03586   0.78284   0.84690   1.000
    Zn6     Zn   0.53588   0.28285   0.84690   1.000
    Zn7     Zn   0.53588   0.78284   0.84692   1.000
    H8      H    0.11466   0.09751   0.09940   1.000
    H9      H    0.11465   0.59752   0.09938   1.000
    H10     H    0.61466   0.09751   0.09940   1.000
    H11     H    0.61465   0.59749   0.09943   1.000
    H12     H    0.25975   0.16591   0.23490   1.000
    H13     H    0.25973   0.66590   0.23493   1.000
    H14     H    0.75976   0.16590   0.23492   1.000
    H15     H    0.75976   0.66589   0.23492   1.000
    H16     H    0.09748   0.23585   0.26100   1.000
    H17     H    0.09747   0.73583   0.26101   1.000
    H18     H    0.59749   0.23584   0.26101   1.000
    H19     H    0.59750   0.73583   0.26101   1.000
    H20     H    0.32902   0.10035   0.09083   1.000
    H21     H    0.32901   0.60033   0.09083   1.000
    H22     H    0.82902   0.10033   0.09084   1.000
    H23     H    0.82902   0.60030   0.09087   1.000
    H24     H    0.29730   0.02901   0.20222   1.000
    H25     H    0.29728   0.52900   0.20221   1.000
    H26     H    0.79729   0.02900   0.20222   1.000
    H27     H    0.79727   0.52897   0.20224   1.000
    H28     H    0.21600   0.45914   0.26998   1.000
    H29     H    0.21606   0.95914   0.27000   1.000
    H30     H    0.71599   0.45911   0.26999   1.000
    H31     H    0.71605   0.95912   0.26999   1.000
    H32     H    0.19213   0.38619   0.25333   1.000
    H33     H    0.19214   0.88620   0.25330   1.000
    H34     H    0.69212   0.38616   0.25332   1.000
    H35     H    0.69214   0.88619   0.25333   1.000
    H36     H    0.29571   0.39196   0.24452   1.000
    H37     H    0.29574   0.89195   0.24453   1.000
    H38     H    0.79571   0.39194   0.24453   1.000
    H39     H    0.79573   0.89194   0.24451   1.000
    H40     H    0.28230   0.17066   0.96361   1.000
    H41     H    0.28229   0.67066   0.96361   1.000
    H42     H    0.78229   0.17066   0.96363   1.000
    H43     H    0.78230   0.67064   0.96365   1.000
    H44     H    0.34478   0.15042   0.85526   1.000
    H45     H    0.34479   0.65042   0.85526   1.000
    H46     H    0.84478   0.15043   0.85527   1.000
    H47     H    0.84480   0.65041   0.85529   1.000
    H48     H    0.23801   0.18023   0.85847   1.000
    H49     H    0.23802   0.68024   0.85846   1.000
    H50     H    0.73801   0.18024   0.85848   1.000
    H51     H    0.73803   0.68023   0.85849   1.000
    H52     H    0.46173   0.01961   0.16957   1.000
    H53     H    0.46170   0.51960   0.16958   1.000
    H54     H    0.96172   0.01960   0.16958   1.000
    H55     H    0.96170   0.51960   0.16958   1.000
    H56     H    0.03370   0.10160   0.83630   1.000
    H57     H    0.03368   0.60161   0.83631   1.000
    H58     H    0.53370   0.10160   0.83629   1.000
    H59     H    0.53370   0.60161   0.83630   1.000
    H60     H    0.38538   0.28815   0.47079   1.000
    H61     H    0.38540   0.78809   0.47085   1.000
    H62     H    0.88538   0.28816   0.47078   1.000
    H63     H    0.88540   0.78810   0.47080   1.000
    H64     H    0.22430   0.20111   0.37787   1.000
    H65     H    0.22428   0.70114   0.37785   1.000
    H66     H    0.72430   0.20111   0.37780   1.000
    H67     H    0.72429   0.70113   0.37786   1.000
    H68     H    0.38535   0.40247   0.90113   1.000
    H69     H    0.38535   0.90246   0.90116   1.000
    H70     H    0.88536   0.40247   0.90113   1.000
    H71     H    0.88536   0.90248   0.90112   1.000
    H72     H    0.24024   0.33412   0.76558   1.000
    H73     H    0.24024   0.83412   0.76561   1.000
    H74     H    0.74025   0.33413   0.76557   1.000
    H75     H    0.74024   0.83411   0.76560   1.000
    H76     H    0.40250   0.26418   0.73948   1.000
    H77     H    0.40250   0.76417   0.73950   1.000
    H78     H    0.90251   0.26417   0.73948   1.000
    H79     H    0.90249   0.76416   0.73951   1.000
    H80     H    0.17099   0.39965   0.90974   1.000
    H81     H    0.17100   0.89962   0.90980   1.000
    H82     H    0.67100   0.39965   0.90971   1.000
    H83     H    0.67100   0.89965   0.90970   1.000
    H84     H    0.20269   0.47100   0.79837   1.000
    H85     H    0.20267   0.97098   0.79842   1.000
    H86     H    0.70271   0.47101   0.79835   1.000
    H87     H    0.70269   0.97100   0.79838   1.000
    H88     H    0.28400   0.04084   0.73062   1.000
    H89     H    0.28403   0.54085   0.73059   1.000
    H90     H    0.78400   0.04087   0.73060   1.000
    H91     H    0.78404   0.54086   0.73000   1.000
    H92     H    0.30779   0.11383   0.74726   1.000
    H93     H    0.30777   0.61385   0.74725   1.000
    H94     H    0.80779   0.11385   0.74726   1.000
    H95     H    0.80779   0.61385   0.74727   1.000
    H96     H    0.20423   0.10797   0.75610   1.000
    H97     H    0.20422   0.60796   0.75607   1.000
    H98     H    0.70422   0.10799   0.75609   1.000
    H99     H    0.70424   0.60797   0.75600   1.000
    H100    H    0.21771   0.32932   0.03697   1.000
    H101    H    0.21774   0.82931   0.03702   1.000
    H102    H    0.71771   0.32932   0.03694   1.000
    H103    H    0.71773   0.82932   0.03697   1.000
    H104    H    0.15519   0.34958   0.14529   1.000
    H105    H    0.15522   0.84957   0.14534   1.000
    H106    H    0.65519   0.34957   0.14527   1.000
    H107    H    0.65521   0.84957   0.14530   1.000
    H108    H    0.26195   0.31975   0.14214   1.000
    H109    H    0.26198   0.81974   0.14218   1.000
    H110    H    0.76195   0.31974   0.14212   1.000
    H111    H    0.76198   0.81974   0.14213   1.000
    H112    H    0.03829   0.48042   0.83089   1.000
    H113    H    0.03829   0.98041   0.83090   1.000
    H114    H    0.53830   0.48043   0.83089   1.000
    H115    H    0.53830   0.98041   0.83089   1.000
    H116    H    0.46631   0.39842   0.16417   1.000
    H117    H    0.46632   0.89842   0.16418   1.000
    H118    H    0.96631   0.39841   0.16417   1.000
    H119    H    0.96631   0.89842   0.16418   1.000
    H120    H    0.11459   0.21187   0.52963   1.000
    H121    H    0.11457   0.71191   0.52961   1.000
    H122    H    0.61459   0.21188   0.52962   1.000
    H123    H    0.61458   0.71189   0.52962   1.000
    H124    H    0.27567   0.29892   0.62255   1.000
    H125    H    0.27569   0.79886   0.62261   1.000
    H126    H    0.77567   0.29893   0.62254   1.000
    H127    H    0.77569   0.79887   0.62259   1.000
    C128    C    0.12980   0.12586   0.14084   1.000
    C129    C    0.12978   0.62586   0.14084   1.000
    C130    C    0.62980   0.12586   0.14085   1.000
    C131    C    0.62979   0.62584   0.14087   1.000
    C132    C    0.20481   0.16194   0.21287   1.000
    C133    C    0.20480   0.66192   0.21288   1.000
    C134    C    0.70482   0.16193   0.21288   1.000
    C135    C    0.70482   0.66191   0.21288   1.000
    C136    C    0.12563   0.19698   0.22364   1.000
    C137    C    0.12561   0.69697   0.22364   1.000
    C138    C    0.62564   0.19697   0.22365   1.000
    C139    C    0.62563   0.69696   0.22365   1.000
    C140    C    0.27877   0.06866   0.13055   1.000
    C141    C    0.27876   0.56865   0.13054   1.000
    C142    C    0.77877   0.06865   0.13055   1.000
    C143    C    0.77876   0.56863   0.13057   1.000
    C144    C    0.26272   0.03329   0.06320   1.000
    C145    C    0.26270   0.53329   0.06321   1.000
    C146    C    0.76272   0.03329   0.06322   1.000
    C147    C    0.76270   0.53327   0.06323   1.000
    C148    C    0.24386   0.46334   0.10891   1.000
    C149    C    0.24388   0.96333   0.10894   1.000
    C150    C    0.74386   0.46332   0.10892   1.000
    C151    C    0.74388   0.96333   0.10892   1.000
    C152    C    0.26756   0.07062   0.95541   1.000
    C153    C    0.26756   0.57063   0.95539   1.000
    C154    C    0.76756   0.07063   0.95540   1.000
    C155    C    0.76756   0.57062   0.95541   1.000
    C156    C    0.23652   0.42365   0.22464   1.000
    C157    C    0.23655   0.92364   0.22467   1.000
    C158    C    0.73651   0.42363   0.22465   1.000
    C159    C    0.73654   0.92363   0.22460   1.000
    C160    C    0.28390   0.14656   0.90654   1.000
    C161    C    0.28390   0.64656   0.90653   1.000
    C162    C    0.78390   0.14656   0.90654   1.000
    C163    C    0.78391   0.64655   0.90656   1.000
    C164    C    0.49381   0.13992   0.00617   1.000
    C165    C    0.49380   0.63992   0.00610   1.000
    C166    C    0.99381   0.13992   0.00617   1.000
    C167    C    0.99378   0.63992   0.00610   1.000
    C168    C    0.49698   0.06753   0.00323   1.000
    C169    C    0.49697   0.56753   0.00324   1.000
    C170    C    0.99699   0.06752   0.00324   1.000
    C171    C    0.99696   0.56752   0.00324   1.000
    C172    C    0.47832   0.01044   0.09575   1.000
    C173    C    0.47830   0.51043   0.09576   1.000
    C174    C    0.97832   0.01043   0.09576   1.000
    C175    C    0.97830   0.51043   0.09576   1.000
    C176    C    0.01909   0.05675   0.90744   1.000
    C177    C    0.01907   0.55675   0.90744   1.000
    C178    C    0.51910   0.05675   0.90740   1.000
    C179    C    0.51909   0.55676   0.90744   1.000
    C180    C    0.37831   0.23960   0.32366   1.000
    C181    C    0.37831   0.73958   0.32368   1.000
    C182    C    0.87831   0.23960   0.32366   1.000
    C183    C    0.87831   0.73959   0.32360   1.000
    C184    C    0.31168   0.24423   0.41476   1.000
    C185    C    0.31168   0.74421   0.41478   1.000
    C186    C    0.81168   0.24423   0.41475   1.000
    C187    C    0.81168   0.74421   0.41477   1.000
    C188    C    0.32577   0.27165   0.48443   1.000
    C189    C    0.32578   0.77161   0.48448   1.000
    C190    C    0.82577   0.27166   0.48442   1.000
    C191    C    0.82578   0.77162   0.48446   1.000
    C192    C    0.23525   0.22260   0.43155   1.000
    C193    C    0.23524   0.72261   0.43155   1.000
    C194    C    0.73525   0.22261   0.43155   1.000
    C195    C    0.73524   0.72261   0.43155   1.000
    C196    C    0.37021   0.37414   0.85967   1.000
    C197    C    0.37021   0.87413   0.85970   1.000
    C198    C    0.87021   0.37414   0.85966   1.000
    C199    C    0.87021   0.87414   0.85967   1.000
    C200    C    0.29518   0.33809   0.78763   1.000
    C201    C    0.29518   0.83808   0.78766   1.000
    C202    C    0.79519   0.33809   0.78762   1.000
    C203    C    0.79518   0.83808   0.78765   1.000
    C204    C    0.37436   0.30304   0.77685   1.000
    C205    C    0.37436   0.80303   0.77687   1.000
    C206    C    0.87437   0.30304   0.77685   1.000
    C207    C    0.87436   0.80303   0.77687   1.000
    C208    C    0.22123   0.43134   0.87002   1.000
    C209    C    0.22123   0.93132   0.87007   1.000
    C210    C    0.72124   0.43134   0.87001   1.000
    C211    C    0.72124   0.93134   0.87003   1.000
    C212    C    0.23729   0.46669   0.93736   1.000
    C213    C    0.23730   0.96668   0.93740   1.000
    C214    C    0.73730   0.46669   0.93736   1.000
    C215    C    0.73730   0.96669   0.93737   1.000
    C216    C    0.25613   0.03664   0.89169   1.000
    C217    C    0.25612   0.53665   0.89166   1.000
    C218    C    0.75613   0.03665   0.89167   1.000
    C219    C    0.75613   0.53665   0.89167   1.000
    C220    C    0.23244   0.42936   0.04510   1.000
    C221    C    0.23246   0.92935   0.04521   1.000
    C222    C    0.73244   0.42935   0.04517   1.000
    C223    C    0.73245   0.92935   0.04518   1.000
    C224    C    0.26344   0.07633   0.77596   1.000
    C225    C    0.26345   0.57634   0.77593   1.000
    C226    C    0.76344   0.07635   0.77590   1.000
    C227    C    0.76346   0.57634   0.77594   1.000
    C228    C    0.21609   0.35343   0.09405   1.000
    C229    C    0.21611   0.85342   0.09409   1.000
    C230    C    0.71608   0.35342   0.09403   1.000
    C231    C    0.71611   0.85342   0.09405   1.000
    C232    C    0.00623   0.36010   0.99426   1.000
    C233    C    0.00622   0.86009   0.99420   1.000
    C234    C    0.50624   0.36010   0.99426   1.000
    C235    C    0.50625   0.86009   0.99428   1.000
    C236    C    0.00304   0.43249   0.99723   1.000
    C237    C    0.00304   0.93249   0.99723   1.000
    C238    C    0.50305   0.43249   0.99723   1.000
    C239    C    0.50306   0.93249   0.99723   1.000
    C240    C    0.02170   0.48958   0.90471   1.000
    C241    C    0.02170   0.98958   0.90470   1.000
    C242    C    0.52171   0.48959   0.90471   1.000
    C243    C    0.52171   0.98958   0.90471   1.000
    C244    C    0.48092   0.44327   0.09303   1.000
    C245    C    0.48094   0.94326   0.09303   1.000
    C246    C    0.98092   0.44326   0.09303   1.000
    C247    C    0.98093   0.94326   0.09303   1.000
    C248    C    0.12166   0.26041   0.67670   1.000
    C249    C    0.12166   0.76041   0.67677   1.000
    C250    C    0.62166   0.26042   0.67675   1.000
    C251    C    0.62167   0.76040   0.67677   1.000
    C252    C    0.18829   0.25579   0.58566   1.000
    C253    C    0.18829   0.75578   0.58568   1.000
    C254    C    0.68829   0.25580   0.58565   1.000
    C255    C    0.68829   0.75579   0.58567   1.000
    C256    C    0.17421   0.22837   0.51598   1.000
    C257    C    0.17419   0.72838   0.51598   1.000
    C258    C    0.67421   0.22838   0.51598   1.000
    C259    C    0.67420   0.72837   0.51599   1.000
    C260    C    0.26473   0.27742   0.56886   1.000
    C261    C    0.26473   0.77738   0.56890   1.000
    C262    C    0.76473   0.27743   0.56885   1.000
    C263    C    0.76474   0.77738   0.56890   1.000
    N264    N    0.07933   0.17435   0.17795   1.000
    N265    N    0.07932   0.67434   0.17794   1.000
    N266    N    0.57934   0.17434   0.17795   1.000
    N267    N    0.57933   0.67433   0.17797   1.000
    N268    N    0.20610   0.11692   0.16069   1.000
    N269    N    0.20608   0.61691   0.16069   1.000
    N270    N    0.70610   0.11691   0.16070   1.000
    N271    N    0.70610   0.61690   0.16071   1.000
    N272    N    0.42066   0.32566   0.82255   1.000
    N273    N    0.42067   0.82565   0.82257   1.000
    N274    N    0.92067   0.32565   0.82250   1.000
    N275    N    0.92066   0.82566   0.82255   1.000
    N276    N    0.29390   0.38309   0.83982   1.000
    N277    N    0.29390   0.88308   0.83985   1.000
    N278    N    0.79391   0.38309   0.83981   1.000
    N279    N    0.79391   0.88309   0.83983   1.000
    O280    O    0.44470   0.15530   0.08207   1.000
    O281    O    0.44468   0.65530   0.08209   1.000
    O282    O    0.94470   0.15529   0.08208   1.000
    O283    O    0.94467   0.65529   0.08209   1.000
    O284    O    0.04194   0.17953   0.93403   1.000
    O285    O    0.04192   0.67953   0.93405   1.000
    O286    O    0.54195   0.17953   0.93400   1.000
    O287    O    0.54195   0.67953   0.93405   1.000
    O288    O    0.36340   0.21122   0.26312   1.000
    O289    O    0.36339   0.71121   0.26313   1.000
    O290    O    0.86340   0.21121   0.26312   1.000
    O291    O    0.86340   0.71121   0.26313   1.000
    O292    O    0.44431   0.26268   0.30740   1.000
    O293    O    0.44431   0.76266   0.30743   1.000
    O294    O    0.94431   0.26269   0.30740   1.000
    O295    O    0.94431   0.76267   0.30742   1.000
    O296    O    0.05533   0.34474   0.91833   1.000
    O297    O    0.05532   0.84473   0.91835   1.000
    O298    O    0.55533   0.34474   0.91833   1.000
    O299    O    0.55534   0.84473   0.91835   1.000
    O300    O    0.45811   0.32047   0.06640   1.000
    O301    O    0.45813   0.82047   0.06643   1.000
    O302    O    0.95811   0.32047   0.06640   1.000
    O303    O    0.95810   0.82047   0.06642   1.000
    O304    O    0.13658   0.28882   0.73727   1.000
    O305    O    0.13657   0.78881   0.73728   1.000
    O306    O    0.63658   0.28882   0.73726   1.000
    O307    O    0.63658   0.78881   0.73728   1.000
    O308    O    0.05568   0.23731   0.69305   1.000
    O309    O    0.05567   0.73730   0.69306   1.000
    O310    O    0.55568   0.23732   0.69304   1.000
    O311    O    0.55568   0.73730   0.69307   1.000
loop_
    _geom_bond_atom_site_label_1
    _geom_bond_atom_site_label_2
    _geom_bond_distance
    _geom_bond_site_symmetry_2
    _ccdc_geom_bond_type
    C168   C164      1.49837      .   S
    C168   C172      1.40377      .   S
    C168   C178      1.40337  1_554   S
    C169   C165      1.49788      .   S
    C169   C173      1.40381      .   S
    C169   C179      1.40292  1_554   S
    C170   C166      1.49831      .   S
    C170   C174      1.40378      .   S
    C170   C176      1.40296  1_654   S
    C171   C167      1.49789      .   S
    C171   C175      1.40381      .   S
    C171   C177      1.40292  1_654   S
    C165   O281      1.27976      .   S
    C165   O287      1.27079  1_554   S
    C167   O283      1.27975      .   S
    C167   O285      1.27064  1_654   S
    C164   O280      1.27873      .   S
    C164   O286      1.27141  1_554   S
    C166   O282      1.27884      .   S
    C166   O284      1.27111  1_654   S
    H102   C230      1.09409      .   S
    H100   C228      1.09406      .   S
    H103   C231      1.09405      .   S
    H101   C229      1.09402      .   S
    C220   C228      1.50769      .   S
    C220   C148      1.41153      .   S
    C220   C212      1.40914  1_554   S
    C222   C230      1.50768      .   S
    C222   C150      1.41066      .   S
    C222   C214      1.41000  1_554   S
    C223   C231      1.50767      .   S
    C223   C151      1.41066      .   S
    C223   C215      1.41001  1_554   S
    C221   C229      1.50768      .   S
    C221   C149      1.41065      .   S
    C221   C213      1.40999  1_554   S
    C144   C149      1.41016  1_545   S
    C144   C140      1.51154      .   S
    C144   C152      1.40975  1_554   S
    C145   C148      1.41007      .   S
    C145   C141      1.51120      .   S
    C145   C153      1.41012  1_554   S
    C146   C151      1.41014  1_545   S
    C146   C142      1.51119      .   S
    C146   C154      1.41014  1_554   S
    C147   C150      1.41008      .   S
    C147   C143      1.51120      .   S
    C147   C155      1.41013  1_554   S
    O302   Zn2       2.00029      .   S
    O302   C232      1.27108  1_654   S
    O300   Zn0       2.00031      .   S
    O300   C234      1.27121  1_554   S
    O303   Zn3       2.00031      .   S
    O303   C233      1.27152  1_654   S
    O301   Zn1       2.00030      .   S
    O301   C235      1.27121  1_554   S
    O280   Zn0       2.03332      .   S
    O282   Zn2       2.03332      .   S
    O283   Zn3       2.03339      .   S
    O281   Zn1       2.03334      .   S
    H21    C141      1.09552      .   S
    H20    C140      1.09552      .   S
    H22    C142      1.09550      .   S
    H23    C143      1.09551      .   S
    C247   C174      1.39143  1_565   S
    C247   H119      1.09079      .   S
    C247   C237      1.40298  1_654   S
    C246   C175      1.39133      .   S
    C246   H118      1.09075      .   S
    C246   C236      1.40294  1_654   S
    C245   C172      1.39138  1_565   S
    C245   H117      1.09078      .   S
    C245   C239      1.40299  1_554   S
    C244   C173      1.39134      .   S
    C244   H116      1.09074      .   S
    C244   C238      1.40293  1_554   S
    C230   H110      1.09909      .   S
    C230   H106      1.10078      .   S
    C231   H111      1.09906      .   S
    C231   H107      1.10077      .   S
    C228   H108      1.09909      .   S
    C228   H104      1.10077      .   S
    C229   H109      1.09910      .   S
    C229   H105      1.10080      .   S
    C172   H52       1.08980      .   S
    C173   H53       1.08975      .   S
    C175   H55       1.08976      .   S
    C174   H54       1.08979      .   S
    H9     C129      1.08046      .   S
    H10    C130      1.08042      .   S
    H8     C128      1.08033      .   S
    H11    C131      1.08039      .   S
    C148   C156      1.50949      .   S
    C150   C158      1.50950      .   S
    C151   C159      1.50892      .   S
    C149   C157      1.50950      .   S
    C141   N269      1.47826      .   S
    C141   H25       1.09562      .   S
    C142   N270      1.47826      .   S
    C142   H26       1.09562      .   S
    C140   N268      1.47824      .   S
    C140   H24       1.09560      .   S
    C143   N271      1.47824      .   S
    C143   H27       1.09559      .   S
    C128   N268      1.35221      .   S
    C128   N264      1.33789      .   S
    C129   N269      1.35219      .   S
    C129   N265      1.33777      .   S
    C130   N270      1.35221      .   S
    C130   N266      1.33779      .   S
    C131   N271      1.35219      .   S
    C131   N267      1.33783      .   S
    Zn0    N266      2.00880      .   S
    Zn0    O288      1.98552      .   S
    Zn2    N264      2.00859  1_655   S
    Zn2    O290      1.98553      .   S
    Zn3    N265      2.00856  1_655   S
    Zn3    O291      1.98544      .   S
    Zn1    N267      2.00880      .   S
    Zn1    O289      1.98548      .   S
    N269   C133      1.38746      .   S
    N268   C132      1.38745      .   S
    N270   C134      1.38743      .   S
    N271   C135      1.38740      .   S
    N265   C137      1.38650      .   S
    N264   C136      1.38649      .   S
    N266   C138      1.38657      .   S
    N267   C139      1.38646      .   S
    C132   C136      1.37220      .   S
    C132   H12       1.08627      .   S
    C133   C137      1.37219      .   S
    C133   H13       1.08639      .   S
    C134   C138      1.37217      .   S
    C134   H14       1.08634      .   S
    C135   C139      1.37218      .   S
    C135   H15       1.08638      .   S
    C136   H16       1.08309      .   S
    C137   H17       1.08313      .   S
    C138   H18       1.08307      .   S
    C139   H19       1.08313      .   S
    C159   H39       1.10218      .   S
    C159   H35       1.09594      .   S
    C159   H31       1.09682      .   S
    C156   H36       1.10203      .   S
    C156   H32       1.09597      .   S
    C156   H28       1.09636      .   S
    C158   H38       1.10201      .   S
    C158   H34       1.09600      .   S
    C158   H30       1.09629      .   S
    C157   H37       1.10199      .   S
    C157   H33       1.09606      .   S
    C157   H29       1.09626      .   S
    O288   C180      1.30913      .   S
    O290   C182      1.30915      .   S
    O289   C181      1.30908      .   S
    O291   C183      1.30819      .   S
    O294   C182      1.25180      .   S
    O292   C180      1.25178      .   S
    O295   C183      1.25199      .   S
    O293   C181      1.25180      .   S
    C183   C187      1.50169      .   S
    C180   C184      1.50102      .   S
    C182   C186      1.50095      .   S
    C181   C185      1.50105      .   S
    H66    C194      1.08852      .   S
    H65    C193      1.08760      .   S
    H67    C195      1.08762      .   S
    H64    C192      1.08763      .   S
    C186   C194      1.40336      .   S
    C186   C190      1.40368      .   S
    C184   C192      1.40337      .   S
    C184   C188      1.40365      .   S
    C187   C195      1.40335      .   S
    C187   C191      1.40372      .   S
    C185   C193      1.40337      .   S
    C185   C189      1.40369      .   S
    C192   C256      1.39206      .   S
    C195   C259      1.39210      .   S
    C194   C258      1.39209      .   S
    C193   C257      1.39210      .   S
    H62    C190      1.08966      .   S
    H60    C188      1.08965      .   S
    H63    C191      1.08956      .   S
    H61    C189      1.08963      .   S
    C190   C262      1.39209      .   S
    C188   C260      1.39208      .   S
    C191   C263      1.39213      .   S
    C189   C261      1.39203      .   S
    C256   H120      1.08964      .   S
    C256   C252      1.40373      .   S
    C258   H122      1.08966      .   S
    C258   C254      1.40363      .   S
    C257   H121      1.08963      .   S
    C257   C253      1.40370      .   S
    C259   H123      1.08964      .   S
    C259   C255      1.40364      .   S
    C262   C254      1.40338      .   S
    C262   H126      1.08777      .   S
    C260   C252      1.40338      .   S
    C260   H124      1.08774      .   S
    C263   C255      1.40339      .   S
    C263   H127      1.08766      .   S
    C261   C253      1.40337      .   S
    C261   H125      1.08775      .   S
    C254   C250      1.50100      .   S
    C252   C248      1.50042      .   S
    C255   C251      1.50096      .   S
    C253   C249      1.50095      .   S
    C248   O308      1.25163      .   S
    C248   O304      1.30981      .   S
    C250   O310      1.25179      .   S
    C250   O306      1.30902      .   S
    C251   O311      1.25176      .   S
    C251   O307      1.30915      .   S
    C249   O309      1.25179      .   S
    C249   O305      1.30904      .   S
    H91    C227      1.10272      .   S
    H89    C225      1.09630      .   S
    H90    C226      1.09576      .   S
    H88    C224      1.09633      .   S
    O306   Zn6       1.98544      .   S
    O304   Zn4       1.98548      .   S
    O305   Zn5       1.98537      .   S
    O307   Zn7       1.98541      .   S
    H78    C206      1.08311      .   S
    H76    C204      1.08309      .   S
    H77    C205      1.08306      .   S
    H79    C207      1.08307      .   S
    H93    C225      1.09598      .   S
    H92    C224      1.09598      .   S
    H94    C226      1.09603      .   S
    H95    C227      1.09598      .   S
    H99    C227      1.10229      .   S
    H97    C225      1.10201      .   S
    H98    C226      1.10188      .   S
    H96    C224      1.10204      .   S
    H74    C202      1.08635      .   S
    H72    C200      1.08637      .   S
    H75    C203      1.08640      .   S
    H73    C201      1.08638      .   S
    C226   C218      1.51004      .   S
    C225   C217      1.50952      .   S
    C227   C219      1.50954      .   S
    C224   C216      1.50954      .   S
    C204   C200      1.37219      .   S
    C204   N272      1.38653      .   S
    C206   C202      1.37218      .   S
    C206   N274      1.38597      .   S
    C207   C203      1.37219      .   S
    C207   N275      1.38643      .   S
    C205   C201      1.37219      .   S
    C205   N273      1.38651      .   S
    C202   N278      1.38742      .   S
    C200   N276      1.38742      .   S
    C203   N279      1.38744      .   S
    C201   N277      1.38736      .   S
    H86    C210      1.09570      .   S
    H84    C208      1.09561      .   S
    H87    C211      1.09563      .   S
    H85    C209      1.09568      .   S
    N274   Zn4       2.00872  1_655   S
    N274   C198      1.33815      .   S
    N275   Zn5       2.00850  1_655   S
    N275   C199      1.33788      .   S
    N272   Zn6       2.00877      .   S
    N272   C196      1.33784      .   S
    N273   Zn7       2.00875      .   S
    N273   C197      1.33785      .   S
    H115   C243      1.08978      .   S
    H114   C242      1.08974      .   S
    H112   C240      1.08973      .   S
    H113   C241      1.08949      .   S
    H58    C178      1.09048      .   S
    H59    C179      1.09076      .   S
    H56    C176      1.09074      .   S
    H57    C177      1.09068      .   S
    N278   C198      1.35219      .   S
    N278   C210      1.47832      .   S
    N276   C196      1.35222      .   S
    N276   C208      1.47829      .   S
    N279   C199      1.35220      .   S
    N279   C211      1.47829      .   S
    N277   C197      1.35225      .   S
    N277   C209      1.47831      .   S
    Zn6    O298      2.03366      .   S
    Zn6    O286      2.00023      .   S
    Zn5    O297      2.03381      .   S
    Zn5    O285      2.00033      .   S
    Zn4    O296      2.03356      .   S
    Zn4    O284      2.00028      .   S
    Zn7    O299      2.03368      .   S
    Zn7    O287      2.00028      .   S
    H45    C161      1.10081      .   S
    H44    C160      1.10081      .   S
    H46    C162      1.10077      .   S
    H47    C163      1.10081      .   S
    H49    C161      1.09916      .   S
    H48    C160      1.09918      .   S
    H50    C162      1.09910      .   S
    H51    C163      1.09916      .   S
    C198   H70       1.08046      .   S
    C199   H71       1.08035      .   S
    C196   H68       1.08036      .   S
    C197   H69       1.08032      .   S
    C210   H82       1.09551      .   S
    C210   C214      1.51123      .   S
    C208   H80       1.09551      .   S
    C208   C212      1.51125      .   S
    C211   H83       1.09544      .   S
    C211   C215      1.51125      .   S
    C209   H81       1.09550      .   S
    C209   C213      1.51125      .   S
    C217   C212      1.41011      .   S
    C217   C153      1.41056      .   S
    C219   C214      1.41010      .   S
    C219   C155      1.41055      .   S
    C218   C215      1.41016  1_545   S
    C218   C154      1.41055      .   S
    C216   C213      1.41016  1_545   S
    C216   C152      1.41056      .   S
    C241   C176      1.39146  1_565   S
    C241   C237      1.40387      .   S
    C240   C177      1.39133      .   S
    C240   C236      1.40382      .   S
    C242   C179      1.39131      .   S
    C242   C238      1.40383      .   S
    C243   C178      1.39121  1_565   S
    C243   C239      1.40377      .   S
    C161   C153      1.50769      .   S
    C161   H41       1.09402      .   S
    C162   C154      1.50769      .   S
    C162   H42       1.09414      .   S
    C160   C152      1.50769      .   S
    C160   H40       1.09398      .   S
    C163   C155      1.50769      .   S
    C163   H43       1.09406      .   S
    O298   C234      1.27880      .   S
    O296   C232      1.27881      .   S
    O299   C235      1.27879      .   S
    O297   C233      1.27796      .   S
    C233   C237      1.49880      .   S
    C234   C238      1.49843      .   S
    C232   C236      1.49843      .   S
    C235   C239      1.49837      .   S
