# CIF file generated by openbabel 2.4.90, see http://openbabel.sf.net
data_I
_chemical_name_common ''
_cell_length_a 10.1355
_cell_length_b 11.566
_cell_length_c 14.801
_cell_angle_alpha 91.189
_cell_angle_beta 90.015
_cell_angle_gamma 90.008
_space_group_name_H-M_alt 'P 1'
_space_group_name_Hall 'P 1'
loop_
    _symmetry_equiv_pos_as_xyz
    x,y,z
loop_
    _atom_site_label
    _atom_site_type_symbol
    _atom_site_fract_x
    _atom_site_fract_y
    _atom_site_fract_z
    _atom_site_occupancy
    C0      C    0.07203   0.75484   0.13178   1.000
    C1      C    0.88247   0.74107   0.30929   1.000
    C2      C    0.57203   0.74515   0.36839   1.000
    C3      C    0.38250   0.75888   0.19079   1.000
    C4      C    0.92810   0.24510   0.86843   1.000
    C5      C    0.11747   0.25880   0.69087   1.000
    C6      C    0.42809   0.25501   0.63241   1.000
    C7      C    0.61716   0.24109   0.81131   1.000
    C8      C    0.00007   0.50002   0.00005   1.000
    C9      C    0.49993   0.00002   0.50060   1.000
    C10     C    0.00000   0.99986   0.00015   1.000
    C11     C    0.50002   0.49990   0.50011   1.000
    C12     C    0.24220   0.85680   0.37300   1.000
    C13     C    0.94841   0.47453   0.27162   1.000
    C14     C    0.38925   0.56251   0.04316   1.000
    C15     C    0.79524   0.98229   0.23434   1.000
    C16     C    0.83743   0.69022   0.92108   1.000
    C17     C    0.29098   0.99961   0.00966   1.000
    C18     C    0.74212   0.64319   0.12711   1.000
    C19     C    0.44999   0.02555   0.22975   1.000
    C20     C    0.88929   0.93771   0.45678   1.000
    C21     C    0.29525   0.51765   0.26566   1.000
    C22     C    0.33726   0.80959   0.57896   1.000
    C23     C    0.79094   0.50043   0.49057   1.000
    C24     C    0.75742   0.14341   0.62772   1.000
    C25     C    0.05144   0.52541   0.72849   1.000
    C26     C    0.61069   0.43762   0.95742   1.000
    C27     C    0.20499   0.01778   0.76587   1.000
    C28     C    0.16248   0.30977   0.07913   1.000
    C29     C    0.70956   0.99998   0.99107   1.000
    C30     C    0.25727   0.35725   0.87323   1.000
    C31     C    0.55170   0.97434   0.77178   1.000
    C32     C    0.11064   0.06258   0.54324   1.000
    C33     C    0.70483   0.48284   0.73489   1.000
    C34     C    0.66297   0.18992   0.42215   1.000
    C35     C    0.20906   0.49951   0.50982   1.000
    C36     C    0.16078   0.82440   0.32996   1.000
    C37     C    0.97525   0.51926   0.20892   1.000
    C38     C    0.28189   0.57655   0.05089   1.000
    C39     C    0.86665   0.95279   0.18217   1.000
    C40     C    0.89832   0.74351   0.96757   1.000
    C41     C    0.27290   0.92756   0.05566   1.000
    C42     C    0.66072   0.67558   0.17014   1.000
    C43     C    0.47521   0.98077   0.29131   1.000
    C44     C    0.78194   0.92350   0.44913   1.000
    C45     C    0.36664   0.54716   0.31787   1.000
    C46     C    0.39828   0.75636   0.53255   1.000
    C47     C    0.77285   0.57242   0.44452   1.000
    C48     C    0.83896   0.17572   0.67070   1.000
    C49     C    0.02465   0.48070   0.79120   1.000
    C50     C    0.71805   0.42358   0.94965   1.000
    C51     C    0.13347   0.04719   0.81800   1.000
    C52     C    0.10162   0.25652   0.03261   1.000
    C53     C    0.72722   0.07214   0.94512   1.000
    C54     C    0.33871   0.32451   0.83039   1.000
    C55     C    0.52481   0.01955   0.70946   1.000
    C56     C    0.21801   0.07659   0.55105   1.000
    C57     C    0.63300   0.45292   0.68309   1.000
    C58     C    0.60196   0.24343   0.46837   1.000
    C59     C    0.22721   0.42757   0.55591   1.000
    C60     C    0.18942   0.80076   0.24708   1.000
    C61     C    0.04928   0.81498   0.36647   1.000
    C62     C    0.97833   0.63044   0.21490   1.000
    C63     C    0.00004   0.45946   0.13969   1.000
    C64     C    0.24815   0.65067   0.11287   1.000
    C65     C    0.20598   0.51961   0.00000   1.000
    C66     C    0.91211   0.85005   0.19194   1.000
    C67     C    0.89398   0.02044   0.12099   1.000
    C68     C    0.97286   0.68571   0.02138   1.000
    C69     C    0.88833   0.85090   0.96439   1.000
    C70     C    0.15159   0.89564   0.06287   1.000
    C71     C    0.37085   0.88576   0.09526   1.000
    C72     C    0.68936   0.69922   0.25302   1.000
    C73     C    0.54922   0.68500   0.13359   1.000
    C74     C    0.47840   0.86960   0.28521   1.000
    C75     C    0.50031   0.04038   0.36192   1.000
    C76     C    0.74819   0.84928   0.38718   1.000
    C77     C    0.70603   0.98034   0.49997   1.000
    C78     C    0.41213   0.64992   0.30811   1.000
    C79     C    0.39388   0.47865   0.37946   1.000
    C80     C    0.47285   0.81425   0.47882   1.000
    C81     C    0.38837   0.64896   0.53570   1.000
    C82     C    0.65152   0.60428   0.43725   1.000
    C83     C    0.87079   0.61426   0.40495   1.000
    C84     C    0.81046   0.19936   0.75358   1.000
    C85     C    0.95041   0.18504   0.63405   1.000
    C86     C    0.02151   0.36952   0.78521   1.000
    C87     C    0.99991   0.54052   0.86046   1.000
    C88     C    0.75179   0.34918   0.88786   1.000
    C89     C    0.79404   0.48077   0.00019   1.000
    C90     C    0.08779   0.14985   0.80817   1.000
    C91     C    0.10612   0.97856   0.87948   1.000
    C92     C    0.02710   0.31435   0.97881   1.000
    C93     C    0.11161   0.14913   0.03570   1.000
    C94     C    0.84840   0.10413   0.93740   1.000
    C95     C    0.62882   0.11402   0.90603   1.000
    C96     C    0.31030   0.30067   0.74753   1.000
    C97     C    0.45003   0.31495   0.86719   1.000
    C98     C    0.52182   0.13069   0.71551   1.000
    C99     C    0.49998   0.95957   0.63986   1.000
    C100    C    0.25179   0.15071   0.61304   1.000
    C101    C    0.29391   0.01960   0.50027   1.000
    C102    C    0.58667   0.35072   0.69405   1.000
    C103    C    0.60612   0.52065   0.62086   1.000
    C104    C    0.52780   0.18582   0.52256   1.000
    C105    C    0.61156   0.35079   0.46455   1.000
    C106    C    0.34848   0.39553   0.56298   1.000
    C107    C    0.12933   0.38599   0.59573   1.000
    O108    O    0.10302   0.50981   0.00002   1.000
    O109    O    0.24394   0.54808   0.02544   1.000
    O110    O    0.89705   0.49039   0.00012   1.000
    O111    O    0.00005   0.47974   0.06987   1.000
    O112    O    0.99999   0.52027   0.93026   1.000
    O113    O    0.05581   0.07450   0.01793   1.000
    O114    O    0.94699   0.01015   0.06057   1.000
    O115    O    0.05306   0.98921   0.93981   1.000
    O116    O    0.94417   0.92538   0.98227   1.000
    O117    O    0.75604   0.45217   0.97492   1.000
    O118    O    0.28194   0.96358   0.03266   1.000
    O119    O    0.02245   0.72028   0.07658   1.000
    O120    O    0.93559   0.71461   0.99447   1.000
    O121    O    0.10662   0.20282   0.03415   1.000
    O122    O    0.13205   0.28314   0.05587   1.000
    O123    O    0.06436   0.28543   0.00571   1.000
    O124    O    0.33557   0.56953   0.04702   1.000
    O125    O    0.26502   0.61361   0.08188   1.000
    O126    O    0.21224   0.91160   0.05926   1.000
    O127    O    0.32188   0.90666   0.07546   1.000
    O128    O    0.11181   0.82524   0.09733   1.000
    O129    O    0.37668   0.82232   0.14303   1.000
    O130    O    0.31532   0.70478   0.15183   1.000
    O131    O    0.88031   0.98661   0.15158   1.000
    O132    O    0.70142   0.65939   0.14863   1.000
    O133    O    0.99207   0.80245   0.16186   1.000
    O134    O    0.13072   0.77780   0.18943   1.000
    O135    O    0.60497   0.68029   0.15187   1.000
    O136    O    0.46586   0.72194   0.16219   1.000
    O137    O    0.98765   0.48936   0.17430   1.000
    O138    O    0.67504   0.68740   0.21158   1.000
    O139    O    0.88938   0.90142   0.18706   1.000
    O140    O    0.83094   0.96754   0.20826   1.000
    O141    O    0.43045   0.81424   0.23800   1.000
    O142    O    0.97679   0.57485   0.21191   1.000
    O143    O    0.96183   0.49689   0.24027   1.000
    O144    O    0.93040   0.68575   0.26209   1.000
    O145    O    0.46260   0.00316   0.26053   1.000
    O146    O    0.17510   0.81258   0.28852   1.000
    O147    O    0.63069   0.72218   0.31071   1.000
    O148    O    0.33094   0.53241   0.29177   1.000
    O149    O    0.47681   0.92518   0.28826   1.000
    O150    O    0.48776   0.01057   0.32661   1.000
    O151    O    0.38938   0.59854   0.31299   1.000
    O152    O    0.49208   0.69753   0.33825   1.000
    O153    O    0.96587   0.77802   0.33788   1.000
    O154    O    0.81533   0.79517   0.34824   1.000
    O155    O    0.87663   0.67766   0.35712   1.000
    O156    O    0.38026   0.51291   0.34867   1.000
    O157    O    0.10503   0.81969   0.34821   1.000
    O158    O    0.20149   0.84060   0.35148   1.000
    O159    O    0.50012   0.02020   0.43126   1.000
    O160    O    0.61177   0.67472   0.40282   1.000
    O161    O    0.52244   0.77970   0.42361   1.000
    O162    O    0.44695   0.48928   0.43978   1.000
    O163    O    0.76506   0.88639   0.41815   1.000
    O164    O    0.82182   0.59334   0.42474   1.000
    O165    O    0.63247   0.21668   0.44526   1.000
    O166    O    0.71219   0.58835   0.44089   1.000
    O167    O    0.78189   0.53643   0.46754   1.000
    O168    O    0.83561   0.93060   0.45295   1.000
    O169    O    0.74398   0.95192   0.47455   1.000
    O170    O    0.60676   0.29711   0.46646   1.000
    O171    O    0.55579   0.42535   0.48233   1.000
    O172    O    0.56488   0.21463   0.49546   1.000
    O173    O    0.43556   0.78530   0.50568   1.000
    O174    O    0.60298   0.99018   0.50029   1.000
    O175    O    0.44420   0.57443   0.51791   1.000
    O176    O    0.55307   0.51028   0.56049   1.000
    O177    O    0.39692   0.00981   0.50043   1.000
    O178    O    0.25596   0.04809   0.52566   1.000
    O179    O    0.49995   0.97979   0.57023   1.000
    O180    O    0.21813   0.46354   0.53287   1.000
    O181    O    0.47794   0.22042   0.57749   1.000
    O182    O    0.39333   0.70266   0.53412   1.000
    O183    O    0.36777   0.78297   0.55575   1.000
    O184    O    0.16433   0.06959   0.54714   1.000
    O185    O    0.23490   0.11365   0.58204   1.000
    O186    O    0.28784   0.41155   0.55944   1.000
    O187    O    0.17827   0.40678   0.57582   1.000
    O188    O    0.38828   0.32527   0.59770   1.000
    O189    O    0.12340   0.32239   0.64330   1.000
    O190    O    0.18463   0.20475   0.65195   1.000
    O191    O    0.61956   0.48678   0.65198   1.000
    O192    O    0.79819   0.15957   0.64921   1.000
    O193    O    0.50738   0.30287   0.66323   1.000
    O194    O    0.36919   0.27784   0.68997   1.000
    O195    O    0.89469   0.18038   0.65238   1.000
    O196    O    0.03394   0.22192   0.66246   1.000
    O197    O    0.51240   0.98956   0.67466   1.000
    O198    O    0.82471   0.18754   0.71214   1.000
    O199    O    0.60983   0.40182   0.68857   1.000
    O200    O    0.66892   0.46788   0.70899   1.000
    O201    O    0.06949   0.31416   0.73804   1.000
    O202    O    0.52332   0.07512   0.71249   1.000
    O203    O    0.53825   0.99694   0.74062   1.000
    O204    O    0.56949   0.18589   0.76341   1.000
    O205    O    0.03805   0.50305   0.75984   1.000
    O206    O    0.32450   0.31259   0.78896   1.000
    O207    O    0.86928   0.22223   0.81100   1.000
    O208    O    0.16923   0.03248   0.79194   1.000
    O209    O    0.02308   0.42511   0.78821   1.000
    O210    O    0.01228   0.51061   0.82583   1.000
    O211    O    0.11063   0.09852   0.81308   1.000
    O212    O    0.00795   0.19747   0.83830   1.000
    O213    O    0.53359   0.27802   0.83925   1.000
    O214    O    0.68447   0.29514   0.84959   1.000
    O215    O    0.62299   0.17756   0.85867   1.000
    O216    O    0.11980   0.01288   0.84874   1.000
    O217    O    0.39437   0.31973   0.84879   1.000
    O218    O    0.29799   0.34088   0.85181   1.000
    O219    O    0.88825   0.17461   0.90292   1.000
    O220    O    0.97760   0.27973   0.92362   1.000
    O221    O    0.73492   0.38638   0.91876   1.000
    O222    O    0.67802   0.09308   0.92558   1.000
    O223    O    0.86788   0.71687   0.94432   1.000
    O224    O    0.78781   0.08813   0.94126   1.000
    O225    O    0.71839   0.03606   0.96810   1.000
    O226    O    0.66437   0.43060   0.95354   1.000
    O227    O    0.89333   0.79720   0.96598   1.000
    O228    O    0.28596   0.77982   0.21894   1.000
    O229    O    0.02518   0.69264   0.17334   1.000
    O230    O    0.16009   0.70276   0.12233   1.000
    O231    O    0.89729   0.79556   0.25062   1.000
    O232    O    0.98646   0.59286   0.01071   1.000
    O233    O    0.07579   0.94775   0.03151   1.000
    O234    O    0.78592   0.72014   0.28116   1.000
    O235    O    0.52521   0.80737   0.32680   1.000
    O236    O    0.66011   0.79722   0.37779   1.000
    O237    O    0.39732   0.70440   0.24945   1.000
    O238    O    0.48639   0.90713   0.48971   1.000
    O239    O    0.57577   0.55209   0.46868   1.000
    O240    O    0.71381   0.22022   0.78244   1.000
    O241    O    0.97480   0.30731   0.82682   1.000
    O242    O    0.83994   0.29714   0.87815   1.000
    O243    O    0.10263   0.20432   0.74952   1.000
    O244    O    0.01358   0.40718   0.98943   1.000
    O245    O    0.92420   0.05200   0.96878   1.000
    O246    O    0.21389   0.27973   0.71920   1.000
    O247    O    0.47495   0.19285   0.67396   1.000
    O248    O    0.33994   0.20286   0.62273   1.000
    O249    O    0.60191   0.29590   0.75268   1.000
    O250    O    0.51386   0.09292   0.51158   1.000
    O251    O    0.42425   0.44772   0.53154   1.000
loop_
    _geom_bond_atom_site_label_1
    _geom_bond_atom_site_label_2
    _geom_bond_distance
    _geom_bond_site_symmetry_2
    _ccdc_geom_bond_type
    C65    O108      1.04965      .   S
    C8     O108      1.04965      .   S
    C65    O109      0.62690      .   S
    C38    O109      0.62690      .   S
    C8     O110      1.04999  1_455   S
    C89    O110      1.04999      .   S
    C8     O111      1.06442      .   S
    C63    O111      1.06442      .   S
    C8     O112      1.06397  1_454   S
    C87    O112      1.06397      .   S
    C10    O113      1.06047  1_565   S
    C93    O113      1.06047      .   S
    C10    O114      1.04804  1_465   S
    C67    O114      1.04804      .   S
    C10    O115      1.04766  1_554   S
    C91    O115      1.04766      .   S
    C10    O116      1.05960  1_454   S
    C69    O116      1.05960      .   S
    C89    O117      0.62636  1_554   S
    C50    O117      0.62636      .   S
    C17    O118      0.55113      .   S
    C41    O118      0.55113      .   S
    C68    O119      1.03257  1_655   S
    C0     O119      1.03257      .   S
    C68    O120      0.64691  1_554   S
    C40    O120      0.64691      .   S
    C52    O121      0.62399      .   S
    C93    O121      0.62399      .   S
    C52    O122      0.55141      .   S
    C28    O122      0.55141      .   S
    C52    O123      0.64687      .   S
    C92    O123      0.64687  1_556   S
    C14    O124      0.55290      .   S
    C38    O124      0.55290      .   S
    C38    O125      0.64444      .   S
    C64    O125      0.64444      .   S
    C41    O126      0.64444      .   S
    C70    O126      0.64444      .   S
    C41    O127      0.62739      .   S
    C71    O127      0.62739      .   S
    C70    O128      1.05015      .   S
    C0     O128      1.05015      .   S
    C71    O129      1.03111      .   S
    C3     O129      1.03111      .   S
    C64    O130      1.08281      .   S
    C3     O130      1.08281      .   S
    C67    O131      0.62018  1_545   S
    C39    O131      0.62018      .   S
    C18    O132      0.55163      .   S
    C42    O132      0.55163      .   S
    C0     O133      1.07157  1_455   S
    C66    O133      1.07157      .   S
    C0     O134      1.06901      .   S
    C60    O134      1.06901      .   S
    C73    O135      0.62928      .   S
    C42    O135      0.62928      .   S
    C73    O136      1.03363      .   S
    C3     O136      1.03363      .   S
    C63    O137      0.62491  1_455   S
    C37    O137      0.62491      .   S
    C42    O138      0.64220      .   S
    C72    O138      0.64220      .   S
    C39    O139      0.64277      .   S
    C66    O139      0.64277      .   S
    C39    O140      0.55361      .   S
    C15    O140      0.55361      .   S
    C3     O141      1.05618      .   S
    C74    O141      1.05618      .   S
    C37    O142      0.64376      .   S
    C62    O142      0.64376      .   S
    C37    O143      0.55292      .   S
    C13    O143      0.55292      .   S
    C62    O144      1.05595      .   S
    C1     O144      1.05595      .   S
    C19    O145      0.54391      .   S
    C43    O145      0.54391  1_565   S
    C60    O146      0.64223      .   S
    C36    O146      0.64223      .   S
    C72    O147      1.06958      .   S
    C2     O147      1.06958      .   S
    C21    O148      0.55363      .   S
    C45    O148      0.55363      .   S
    C74    O149      0.64376      .   S
    C43    O149      0.64376      .   S
    C43    O150      0.63285  1_565   S
    C75    O150      0.63285      .   S
    C78    O151      0.64283      .   S
    C45    O151      0.64283      .   S
    C78    O152      1.07165      .   S
    C2     O152      1.07165      .   S
    C1     O153      1.03374      .   S
    C61    O153      1.03374  1_455   S
    C1     O154      1.08272      .   S
    C76    O154      1.08272      .   S
    C1     O155      1.03149      .   S
    C83    O155      1.03149      .   S
    C45    O156      0.62549      .   S
    C79    O156      0.62549      .   S
    C36    O157      0.62926      .   S
    C61    O157      0.62926      .   S
    C36    O158      0.55162      .   S
    C12    O158      0.55162      .   S
    C75    O159      1.05721      .   S
    C9     O159      1.05721      .   S
    C2     O160      1.05016      .   S
    C82    O160      1.05016      .   S
    C2     O161      1.03286      .   S
    C80    O161      1.03286      .   S
    C79    O162      1.04731      .   S
    C11    O162      1.04731      .   S
    C76    O163      0.64450      .   S
    C44    O163      0.64450      .   S
    C83    O164      0.62738      .   S
    C47    O164      0.62738      .   S
    C34    O165      0.55140      .   S
    C58    O165      0.55140      .   S
    C82    O166      0.64449      .   S
    C47    O166      0.64449      .   S
    C47    O167      0.55113      .   S
    C23    O167      0.55113      .   S
    C44    O168      0.55290      .   S
    C20    O168      0.55290      .   S
    C44    O169      0.62658      .   S
    C77    O169      0.62658      .   S
    C105   O170      0.62400      .   S
    C58    O170      0.62400      .   S
    C105   O171      1.05978      .   S
    C11    O171      1.05978      .   S
    C58    O172      0.64706      .   S
    C104   O172      0.64706      .   S
    C80    O173      0.64698      .   S
    C46    O173      0.64698      .   S
    C77    O174      1.05068      .   S
    C9     O174      1.05068  1_545   S
    C11    O175      1.05987      .   S
    C81    O175      1.05987      .   S
    C11    O176      1.04754      .   S
    C103   O176      1.04754      .   S
    C101   O177      1.05020      .   S
    C9     O177      1.05020      .   S
    C101   O178      0.62666      .   S
    C56    O178      0.62666      .   S
    C9     O179      1.06155  1_545   S
    C99    O179      1.06155      .   S
    C35    O180      0.55115      .   S
    C59    O180      0.55115      .   S
    C104   O181      1.03108      .   S
    C6     O181      1.03108      .   S
    C46    O182      0.62401      .   S
    C81    O182      0.62401      .   S
    C46    O183      0.55142      .   S
    C22    O183      0.55142      .   S
    C32    O184      0.55291      .   S
    C56    O184      0.55291      .   S
    C56    O185      0.64444      .   S
    C100   O185      0.64444      .   S
    C59    O186      0.64438      .   S
    C106   O186      0.64438      .   S
    C59    O187      0.62742      .   S
    C107   O187      0.62742      .   S
    C106   O188      1.05091      .   S
    C6     O188      1.05091      .   S
    C107   O189      1.03048      .   S
    C5     O189      1.03048      .   S
    C100   O190      1.08221      .   S
    C5     O190      1.08221      .   S
    C103   O191      0.62571      .   S
    C57    O191      0.62571      .   S
    C24    O192      0.55161      .   S
    C48    O192      0.55161      .   S
    C6     O193      1.07212      .   S
    C102   O193      1.07212      .   S
    C6     O194      1.06898      .   S
    C96    O194      1.06898      .   S
    C85    O195      0.62942      .   S
    C48    O195      0.62942      .   S
    C85    O196      1.03330  1_655   S
    C5     O196      1.03330      .   S
    C99    O197      0.62771      .   S
    C55    O197      0.62771  1_545   S
    C48    O198      0.64212      .   S
    C84    O198      0.64212      .   S
    C57    O199      0.64266      .   S
    C102   O199      0.64266      .   S
    C57    O200      0.55366      .   S
    C33    O200      0.55366      .   S
    C5     O201      1.05627      .   S
    C86    O201      1.05627      .   S
    C55    O202      0.64354      .   S
    C98    O202      0.64354      .   S
    C55    O203      0.55190  1_545   S
    C31    O203      0.55190      .   S
    C98    O204      1.06046      .   S
    C7     O204      1.06046      .   S
    C25    O205      0.55290      .   S
    C49    O205      0.55290      .   S
    C96    O206      0.64206      .   S
    C54    O206      0.64206      .   S
    C84    O207      1.06684      .   S
    C4     O207      1.06684      .   S
    C27    O208      0.55361      .   S
    C51    O208      0.55361      .   S
    C86    O209      0.64373      .   S
    C49    O209      0.64373      .   S
    C49    O210      0.62516      .   S
    C87    O210      0.62516  1_655   S
    C90    O211      0.64277      .   S
    C51    O211      0.64277      .   S
    C90    O212      1.07119      .   S
    C4     O212      1.07119  1_655   S
    C7     O213      1.03140      .   S
    C97    O213      1.03140      .   S
    C7     O214      1.07804      .   S
    C88    O214      1.07804      .   S
    C7     O215      1.02772      .   S
    C95    O215      1.02772      .   S
    C51    O216      0.62546      .   S
    C91    O216      0.62546  1_565   S
    C54    O217      0.62930      .   S
    C97    O217      0.62930      .   S
    C54    O218      0.55160      .   S
    C30    O218      0.55160      .   S
    C4     O219      1.05147      .   S
    C94    O219      1.05147      .   S
    C4     O220      1.03226      .   S
    C92    O220      1.03226  1_455   S
    C88    O221      0.64448      .   S
    C50    O221      0.64448      .   S
    C95    O222      0.62761      .   S
    C53    O222      0.62761      .   S
    C16    O223      0.55140      .   S
    C40    O223      0.55140      .   S
    C94    O224      0.64423      .   S
    C53    O224      0.64423      .   S
    C53    O225      0.55107      .   S
    C29    O225      0.55107  1_565   S
    C50    O226      0.55290      .   S
    C26    O226      0.55290      .   S
    C69    O227      0.62399      .   S
    C40    O227      0.62399      .   S
    C60    O228      1.08892      .   S
    C3     O228      1.08892      .   S
    C62    O229      1.06763  1_655   S
    C0     O229      1.06763      .   S
    C64    O230      1.08434      .   S
    C0     O230      1.08434      .   S
    C66    O231      1.09394      .   S
    C1     O231      1.09394      .   S
    C68    O232      1.09092      .   S
    C8     O232      1.09092  1_455   S
    C70    O233      1.08647      .   S
    C10    O233      1.08647      .   S
    C72    O234      1.08866      .   S
    C1     O234      1.08866      .   S
    C74    O235      1.06787      .   S
    C2     O235      1.06787      .   S
    C76    O236      1.08413      .   S
    C2     O236      1.08413      .   S
    C78    O237      1.09364      .   S
    C3     O237      1.09364      .   S
    C80    O238      1.09165      .   S
    C9     O238      1.09165  1_545   S
    C82    O239      1.08714      .   S
    C11    O239      1.08714      .   S
    C84    O240      1.09377      .   S
    C7     O240      1.09377      .   S
    C86    O241      1.06746  1_455   S
    C4     O241      1.06746      .   S
    C88    O242      1.08532      .   S
    C4     O242      1.08532      .   S
    C90    O243      1.09355      .   S
    C5     O243      1.09355      .   S
    C92    O244      1.09059      .   S
    C8     O244      1.09059  1_554   S
    C94    O245      1.08674      .   S
    C10    O245      1.08674  1_464   S
    C96    O246      1.08856      .   S
    C5     O246      1.08856      .   S
    C98    O247      1.06723      .   S
    C6     O247      1.06723      .   S
    C100   O248      1.08575      .   S
    C6     O248      1.08575      .   S
    C102   O249      1.09617      .   S
    C7     O249      1.09617      .   S
    C104   O250      1.09253      .   S
    C9     O250      1.09253      .   S
    C106   O251      1.08734      .   S
    C11    O251      1.08734      .   S
