# CIF file generated by openbabel 2.4.90, see http://openbabel.sf.net
data_I
_chemical_name_common ''
_cell_length_a 10.3935
_cell_length_b 17.884
_cell_length_c 21.009
_cell_angle_alpha 90.126
_cell_angle_beta 90.167
_cell_angle_gamma 90.149
_space_group_name_H-M_alt 'P 1'
_space_group_name_Hall 'P 1'
loop_
    _symmetry_equiv_pos_as_xyz
    x,y,z
loop_
    _atom_site_label
    _atom_site_type_symbol
    _atom_site_fract_x
    _atom_site_fract_y
    _atom_site_fract_z
    _atom_site_occupancy
    Zr0     Zr   0.84371   0.12467   0.69455   1.000
    Zr1     Zr   0.85018   0.12473   0.19467   1.000
    Zr2     Zr   0.64961   0.62505   0.80261   1.000
    Zr3     Zr   0.65022   0.62489   0.30518   1.000
    Zr4     Zr   0.15028   0.37163   0.94972   1.000
    Zr5     Zr   0.14999   0.37168   0.45022   1.000
    Zr6     Zr   0.33922   0.87198   0.55289   1.000
    Zr7     Zr   0.34491   0.86907   0.05532   1.000
    N8      N    0.87502   0.37343   0.30989   1.000
    O9      O    0.97833   0.37265   0.36253   1.000
    N10     N    0.37286   0.62293   0.44048   1.000
    O11     O    0.47695   0.62362   0.39000   1.000
    N12     N    0.12422   0.12110   0.06082   1.000
    O13     O    0.02185   0.12235   0.11058   1.000
    N14     N    0.61835   0.87349   0.68894   1.000
    O15     O    0.51356   0.87280   0.63827   1.000
    N16     N    0.36404   0.61341   0.94907   1.000
    O17     O    0.47258   0.61881   0.89329   1.000
    N18     N    0.11897   0.12359   0.56292   1.000
    O19     O    0.01585   0.12391   0.61152   1.000
    N20     N    0.87140   0.37356   0.80950   1.000
    O21     O    0.97616   0.37298   0.86231   1.000
    N22     N    0.62508   0.87313   0.19041   1.000
    O23     O    0.52002   0.87163   0.14001   1.000
    O24     O    0.86663   0.27048   0.26375   1.000
    O25     O    0.71526   0.97705   0.19151   1.000
    O26     O    0.35913   0.72017   0.99357   1.000
    O27     O    0.21232   0.01692   0.05909   1.000
    O28     O    0.70840   0.97732   0.69072   1.000
    O29     O    0.86120   0.27061   0.76341   1.000
    O30     O    0.36062   0.72634   0.48498   1.000
    O31     O    0.20681   0.01951   0.55955   1.000
    O32     O    0.28446   0.51878   0.44390   1.000
    O33     O    0.12979   0.22658   0.51828   1.000
    O34     O    0.62935   0.77064   0.73437   1.000
    O35     O    0.78284   0.47750   0.80715   1.000
    O36     O    0.78478   0.47724   0.30830   1.000
    O37     O    0.63414   0.77051   0.23645   1.000
    O38     O    0.28060   0.51379   0.94780   1.000
    O39     O    0.13374   0.22460   0.01622   1.000
loop_
    _geom_bond_atom_site_label_1
    _geom_bond_atom_site_label_2
    _geom_bond_distance
    _geom_bond_site_symmetry_2
    _ccdc_geom_bond_type
    N8     O9        1.53932      .   S
    Zr5    O9        2.56100  1_455   S
    N10    O11       1.51714      .   S
    Zr3    O11       2.53740      .   S
    N12    O13       1.49393      .   S
    Zr1    O13       2.51509  1_655   S
    N14    O15       1.52083      .   S
    Zr6    O15       2.54590      .   S
    N16    O17       1.63186      .   S
    Zr2    O17       2.65466      .   S
    N18    O19       1.48236      .   S
    Zr0    O19       2.50246  1_655   S
    N20    O21       1.55221      .   S
    Zr4    O21       2.57473  1_455   S
    N22    O23       1.51893      .   S
    Zr7    O23       2.54193      .   S
    Zr1    O24       2.98476      .   S
    N8     O24       2.08035      .   S
    Zr1    O25       2.98762  1_545   S
    N22    O25       2.07940      .   S
    Zr7    O26       2.96370  1_554   S
    N16    O26       2.12479      .   S
    Zr7    O27       2.98588  1_565   S
    N12    O27       2.07842      .   S
    Zr0    O28       2.98464  1_545   S
    N14    O28       2.07754      .   S
    Zr0    O29       2.98616      .   S
    N20    O29       2.08073      .   S
    Zr6    O30       2.97616      .   S
    N10    O30       2.07471      .   S
    Zr6    O31       2.98223  1_565   S
    N18    O31       2.07646      .   S
    Zr5    O32       2.97906      .   S
    N10    O32       2.07630      .   S
    Zr5    O33       2.97283      .   S
    N18    O33       2.07176      .   S
    Zr2    O34       2.98280      .   S
    N14    O34       2.07725      .   S
    Zr2    O35       2.98482      .   S
    N20    O35       2.07700      .   S
    Zr3    O36       2.99192      .   S
    N8     O36       2.08250      .   S
    Zr3    O37       2.98538      .   S
    N22    O37       2.07862      .   S
    Zr4    O38       2.87795      .   S
    N16    O38       1.97968      .   S
    Zr4    O39       2.98504  1_556   S
    N12    O39       2.07882      .   S
