# CIF file generated by openbabel 2.4.90, see http://openbabel.sf.net
data_I
_chemical_name_common ''
_cell_length_a 7.983
_cell_length_b 14.441
_cell_length_c 14.453
_cell_angle_alpha 89.786
_cell_angle_beta 89.654
_cell_angle_gamma 85.679
_space_group_name_H-M_alt 'P 1'
_space_group_name_Hall 'P 1'
loop_
    _symmetry_equiv_pos_as_xyz
    x,y,z
loop_
    _atom_site_label
    _atom_site_type_symbol
    _atom_site_fract_x
    _atom_site_fract_y
    _atom_site_fract_z
    _atom_site_occupancy
    Ag0     Ag   0.22962   0.06291   0.57462   1.000
    Ag1     Ag   0.77342   0.43727   0.07489   1.000
    Ag2     Ag   0.25704   0.43314   0.06931   1.000
    Ag3     Ag   0.77362   0.93757   0.42502   1.000
    Ag4     Ag   0.25932   0.93323   0.43029   1.000
    Ag5     Ag   0.74098   0.56670   0.92999   1.000
    Ag6     Ag   0.22985   0.56332   0.92478   1.000
    Ag7     Ag   0.73843   0.06645   0.56955   1.000
loop_
    _geom_bond_atom_site_label_1
    _geom_bond_atom_site_label_2
    _geom_bond_distance
    _geom_bond_site_symmetry_2
    _ccdc_geom_bond_type
    Ag2    Ag6       2.80351  1_554   S
    Ag1    Ag5       2.80189  1_554   S
    Ag3    Ag7       2.80166  1_565   S
    Ag4    Ag0       2.80556  1_565   S
