# CIF file generated by openbabel 2.4.90, see http://openbabel.sf.net
data_I
_chemical_name_common ''
_cell_length_a 7.983
_cell_length_b 14.441
_cell_length_c 14.453
_cell_angle_alpha 89.786
_cell_angle_beta 89.654
_cell_angle_gamma 85.679
_space_group_name_H-M_alt 'P 1'
_space_group_name_Hall 'P 1'
loop_
    _symmetry_equiv_pos_as_xyz
    x,y,z
loop_
    _atom_site_label
    _atom_site_type_symbol
    _atom_site_fract_x
    _atom_site_fract_y
    _atom_site_fract_z
    _atom_site_occupancy
    N0      N    0.48677   0.22820   0.27682   1.000
    N1      N    0.02413   0.27252   0.78078   1.000
    N2      N    0.51324   0.27171   0.77814   1.000
    N3      N    0.02411   0.77296   0.71887   1.000
    N4      N    0.51375   0.77159   0.72158   1.000
    N5      N    0.98964   0.22730   0.28087   1.000
    N6      N    0.48953   0.72849   0.22277   1.000
    N7      N    0.99088   0.72754   0.21929   1.000
    Zr8     Zr   0.24447   0.99807   0.50246   1.000
    O9      O    0.32527   0.90132   0.40089   1.000
    O10     O    0.17075   0.09641   0.60356   1.000
    Zr11    Zr   0.24344   0.49823   0.99705   1.000
    O12     O    0.17033   0.59671   0.89598   1.000
    O13     O    0.32351   0.40128   0.09863   1.000
    Zr14    Zr   0.75603   0.00201   0.49729   1.000
    O15     O    0.67561   0.09876   0.59925   1.000
    O16     O    0.83411   0.90372   0.39632   1.000
    Zr17    Zr   0.75720   0.50199   0.00244   1.000
    O18     O    0.67671   0.59873   0.90046   1.000
    O19     O    0.83420   0.40358   0.10360   1.000
    O20     O    0.16545   0.06787   0.43479   1.000
    O21     O    0.32801   0.92901   0.56916   1.000
    O22     O    0.16516   0.56806   0.06493   1.000
    O23     O    0.32721   0.42914   0.93044   1.000
    O24     O    0.67433   0.57105   0.06964   1.000
    O25     O    0.83905   0.43209   0.93474   1.000
    O26     O    0.83831   0.93227   0.56497   1.000
    O27     O    0.67247   0.07099   0.43009   1.000
loop_
    _geom_bond_atom_site_label_1
    _geom_bond_atom_site_label_2
    _geom_bond_distance
    _geom_bond_site_symmetry_2
    _ccdc_geom_bond_type
    Zr8    O9        2.09544      .   S
    N6     O9        3.75372      .   S
    Zr8    O10       2.09229  1_565   S
    N1     O10       3.73658      .   S
    Zr11   O12       2.08959      .   S
    N3     O12       3.73279      .   S
    Zr11   O13       2.09412  1_556   S
    N0     O13       3.75234      .   S
    Zr14   O15       2.09878      .   S
    N2     O15       3.75793      .   S
    Zr14   O16       2.09863  1_545   S
    N7     O16       3.75705      .   S
    Zr17   O18       2.09717  1_554   S
    N4     O18       3.75632      .   S
    Zr17   O19       2.09724      .   S
    N5     O19       3.75482      .   S
    Zr8    O20       1.50818  1_565   S
    N5     O20       3.42518  1_655   S
    Zr8    O21       1.50637      .   S
    N4     O21       3.42257      .   S
    N7     O22       3.42565  1_655   S
    Zr11   O22       1.50833  1_556   S
    N2     O23       3.42177      .   S
    Zr11   O23       1.50607      .   S
    N6     O24       3.42585      .   S
    Zr17   O24       1.50859      .   S
    N1     O25       3.45397  1_455   S
    Zr17   O25       1.51771  1_554   S
    Zr14   O26       1.51773  1_545   S
    N3     O26       3.45354  1_455   S
    Zr14   O27       1.51025      .   S
    N0     O27       3.42841      .   S
