# CIF file generated by openbabel 2.4.90, see http://openbabel.sf.net
data_I
_chemical_name_common ''
_cell_length_a 7.983
_cell_length_b 14.441
_cell_length_c 14.453
_cell_angle_alpha 89.786
_cell_angle_beta 89.654
_cell_angle_gamma 85.679
_space_group_name_H-M_alt 'P 1'
_space_group_name_Hall 'P 1'
loop_
    _symmetry_equiv_pos_as_xyz
    x,y,z
loop_
    _atom_site_label
    _atom_site_type_symbol
    _atom_site_fract_x
    _atom_site_fract_y
    _atom_site_fract_z
    _atom_site_occupancy
    C0      C    0.73843   0.06645   0.56955   1.000
    C1      C    0.22962   0.06291   0.57462   1.000
    C2      C    0.77342   0.43727   0.07489   1.000
    C3      C    0.25704   0.43314   0.06931   1.000
    C4      C    0.77362   0.93757   0.42502   1.000
    C5      C    0.25932   0.93323   0.43029   1.000
    C6      C    0.74098   0.56670   0.92999   1.000
    C7      C    0.22985   0.56332   0.92478   1.000
    C8      C    0.10752   0.31240   0.38377   1.000
    C9      C    0.60453   0.31581   0.37758   1.000
    C10     C    0.99767   0.42736   0.26243   1.000
    C11     C    0.48909   0.42828   0.25553   1.000
    C12     C    0.79870   0.22034   0.11045   1.000
    C13     C    0.29192   0.21736   0.10822   1.000
    C14     C    0.90649   0.09727   0.22346   1.000
    C15     C    0.40621   0.09660   0.22183   1.000
    C16     C    0.39157   0.18431   0.87899   1.000
    C17     C    0.00000   0.18732   0.88357   1.000
    C18     C    0.50723   0.07193   0.75694   1.000
    C19     C    0.00087   0.07271   0.76244   1.000
    C20     C    0.71144   0.28235   0.60933   1.000
    C21     C    0.20697   0.27958   0.61062   1.000
    C22     C    0.59818   0.40294   0.72322   1.000
    C23     C    0.09738   0.40240   0.72314   1.000
    C24     C    0.39638   0.68387   0.62072   1.000
    C25     C    0.00000   0.68769   0.61650   1.000
    C26     C    0.51191   0.57143   0.74281   1.000
    C27     C    0.00431   0.57290   0.73759   1.000
    C28     C    0.70783   0.78251   0.89043   1.000
    C29     C    0.20470   0.78016   0.88861   1.000
    C30     C    0.59465   0.90313   0.77638   1.000
    C31     C    0.09506   0.90308   0.77599   1.000
    C32     C    0.11228   0.81249   0.11618   1.000
    C33     C    0.61105   0.81591   0.12182   1.000
    C34     C    0.00218   0.92732   0.23743   1.000
    C35     C    0.49457   0.92837   0.24358   1.000
    C36     C    0.79696   0.72072   0.39002   1.000
    C37     C    0.29062   0.71790   0.39130   1.000
    C38     C    0.90492   0.59775   0.27719   1.000
    C39     C    0.40559   0.59718   0.27799   1.000
    C40     C    0.59422   0.12763   0.37626   1.000
    C41     C    0.09174   0.12482   0.37988   1.000
    C42     C    0.01581   0.19594   0.31232   1.000
    C43     C    0.51422   0.19749   0.30864   1.000
    C44     C    0.03856   0.29026   0.32404   1.000
    C45     C    0.53475   0.29224   0.31878   1.000
    C46     C    0.97674   0.35378   0.25768   1.000
    C47     C    0.46963   0.35444   0.25202   1.000
    C48     C    0.86799   0.23796   0.17196   1.000
    C49     C    0.36203   0.23644   0.16892   1.000
    C50     C    0.92803   0.16994   0.23438   1.000
    C51     C    0.42552   0.16970   0.23174   1.000
    C52     C    0.90845   0.37493   0.87969   1.000
    C53     C    0.40596   0.37227   0.87760   1.000
    C54     C    0.48597   0.30236   0.81002   1.000
    C55     C    0.00000   0.30382   0.81216   1.000
    C56     C    0.46314   0.20776   0.82017   1.000
    C57     C    0.00000   0.20956   0.82389   1.000
    C58     C    0.52818   0.14563   0.75337   1.000
    C59     C    0.02311   0.14617   0.75765   1.000
    C60     C    0.63980   0.26332   0.67009   1.000
    C61     C    0.13567   0.26189   0.67199   1.000
    C62     C    0.57683   0.33000   0.73306   1.000
    C63     C    0.07471   0.32980   0.73421   1.000
    C64     C    0.90862   0.87537   0.62001   1.000
    C65     C    0.40630   0.87218   0.62213   1.000
    C66     C    0.48652   0.80225   0.68964   1.000
    C67     C    0.00000   0.80431   0.68749   1.000
    C68     C    0.46607   0.70747   0.67955   1.000
    C69     C    0.00000   0.70995   0.67598   1.000
    C70     C    0.53110   0.64531   0.74636   1.000
    C71     C    0.02524   0.64650   0.74219   1.000
    C72     C    0.63812   0.76336   0.82961   1.000
    C73     C    0.13467   0.76243   0.82741   1.000
    C74     C    0.57511   0.83004   0.76659   1.000
    C75     C    0.07368   0.83038   0.76515   1.000
    C76     C    0.59764   0.62782   0.12365   1.000
    C77     C    0.09244   0.62509   0.12015   1.000
    C78     C    0.01721   0.69621   0.18790   1.000
    C79     C    0.51726   0.69782   0.19102   1.000
    C80     C    0.04196   0.79040   0.17605   1.000
    C81     C    0.53954   0.79245   0.18066   1.000
    C82     C    0.97990   0.85387   0.24233   1.000
    C83     C    0.47383   0.85465   0.24724   1.000
    C84     C    0.86769   0.73829   0.32842   1.000
    C85     C    0.36245   0.73691   0.33060   1.000
    C86     C    0.92789   0.67031   0.26610   1.000
    C87     C    0.42634   0.67017   0.26796   1.000
    C88     C    0.89211   0.32885   0.18238   1.000
    C89     C    0.38373   0.32776   0.17787   1.000
    C90     C    0.61585   0.17218   0.67905   1.000
    C91     C    0.11021   0.17108   0.68247   1.000
    C92     C    0.61637   0.67203   0.82073   1.000
    C93     C    0.11079   0.67149   0.81715   1.000
    C94     C    0.89343   0.82905   0.31778   1.000
    C95     C    0.38587   0.82810   0.32146   1.000
    C96     C    0.65255   0.16008   0.44967   1.000
    C97     C    0.15466   0.15613   0.45254   1.000
    C98     C    0.59964   0.04277   0.35157   1.000
    C99     C    0.08931   0.03987   0.35606   1.000
    C100    C    0.84497   0.34357   0.95283   1.000
    C101    C    0.34027   0.33966   0.94955   1.000
    C102    C    0.91134   0.45991   0.85551   1.000
    C103    C    0.40766   0.45748   0.85442   1.000
    C104    C    0.84547   0.84395   0.54744   1.000
    C105    C    0.34088   0.83970   0.55071   1.000
    C106    C    0.91084   0.96035   0.64373   1.000
    C107    C    0.40753   0.95736   0.64492   1.000
    C108    C    0.65940   0.66018   0.05046   1.000
    C109    C    0.15545   0.65642   0.04690   1.000
    C110    C    0.59977   0.54287   0.14828   1.000
    C111    C    0.08909   0.54010   0.14431   1.000
    O112    O    0.12395   0.64075   0.08353   1.000
    O113    O    0.19265   0.60987   0.98584   1.000
    O114    O    0.62852   0.64400   0.08706   1.000
    O115    O    0.70019   0.61344   0.99023   1.000
    O116    O    0.17307   0.48662   0.10681   1.000
    O117    O    0.32038   0.38045   0.12359   1.000
    O118    O    0.24344   0.49823   0.99705   1.000
    O119    O    0.29865   0.38640   0.00943   1.000
    O120    O    0.68659   0.49007   0.11158   1.000
    O121    O    0.83276   0.38306   0.12863   1.000
    O122    O    0.75720   0.50199   0.00244   1.000
    O123    O    0.80920   0.39042   0.01386   1.000
    O124    O    0.32698   0.22690   0.13857   1.000
    O125    O    0.83334   0.22915   0.14120   1.000
    O126    O    0.07712   0.80144   0.14612   1.000
    O127    O    0.09077   0.58259   0.13223   1.000
    O128    O    0.05482   0.66065   0.15403   1.000
    O129    O    0.57530   0.80418   0.15124   1.000
    O130    O    0.59870   0.58535   0.13597   1.000
    O131    O    0.55745   0.66282   0.15734   1.000
    O132    O    0.37288   0.28210   0.17339   1.000
    O133    O    0.39378   0.20307   0.20033   1.000
    O134    O    0.88005   0.28340   0.17717   1.000
    O135    O    0.89801   0.20395   0.20317   1.000
    O136    O    0.02958   0.74330   0.18198   1.000
    O137    O    0.01093   0.82214   0.20919   1.000
    O138    O    0.42668   0.34110   0.21495   1.000
    O139    O    0.52840   0.74514   0.18584   1.000
    O140    O    0.50669   0.82355   0.21395   1.000
    O141    O    0.93442   0.34131   0.22003   1.000
    O142    O    0.97255   0.68326   0.22700   1.000
    O143    O    0.47180   0.68400   0.22949   1.000
    O144    O    0.41587   0.13315   0.22678   1.000
    O145    O    0.91726   0.13361   0.22892   1.000
    O146    O    0.46987   0.18359   0.27019   1.000
    O147    O    0.97192   0.18294   0.27335   1.000
    O148    O    0.99104   0.89060   0.23988   1.000
    O149    O    0.93666   0.84146   0.28006   1.000
    O150    O    0.48420   0.89151   0.24541   1.000
    O151    O    0.42985   0.84138   0.28435   1.000
    O152    O    0.47936   0.39136   0.25378   1.000
    O153    O    0.50219   0.32334   0.28540   1.000
    O154    O    0.98721   0.39057   0.26006   1.000
    O155    O    0.00765   0.32202   0.29086   1.000
    O156    O    0.91641   0.63403   0.27164   1.000
    O157    O    0.89779   0.70430   0.29726   1.000
    O158    O    0.41597   0.63368   0.27298   1.000
    O159    O    0.39439   0.70354   0.29928   1.000
    O160    O    0.52448   0.24486   0.31371   1.000
    O161    O    0.55422   0.16256   0.34245   1.000
    O162    O    0.02718   0.24310   0.31818   1.000
    O163    O    0.05378   0.16038   0.34610   1.000
    O164    O    0.88056   0.78367   0.32310   1.000
    O165    O    0.83352   0.88331   0.37140   1.000
    O166    O    0.56964   0.30402   0.34818   1.000
    O167    O    0.37416   0.78251   0.32603   1.000
    O168    O    0.32259   0.88067   0.37588   1.000
    O169    O    0.07304   0.30133   0.35391   1.000
    O170    O    0.83232   0.72951   0.35922   1.000
    O171    O    0.32653   0.72741   0.36095   1.000
    O172    O    0.59693   0.08520   0.36391   1.000
    O173    O    0.68663   0.99017   0.38830   1.000
    O174    O    0.09053   0.08235   0.36797   1.000
    O175    O    0.17431   0.98655   0.39317   1.000
    O176    O    0.62338   0.14386   0.41296   1.000
    O177    O    0.12320   0.14048   0.41621   1.000
    O178    O    0.80955   0.89076   0.48623   1.000
    O179    O    0.75603   0.00201   0.49729   1.000
    O180    O    0.30010   0.88646   0.49050   1.000
    O181    O    0.24447   0.99807   0.50246   1.000
    O182    O    0.69549   0.11327   0.50961   1.000
    O183    O    0.19214   0.10952   0.51358   1.000
    O184    O    0.87704   0.85966   0.58373   1.000
    O185    O    0.37359   0.85594   0.58642   1.000
    O186    O    0.82463   0.01340   0.60664   1.000
    O187    O    0.67714   0.11932   0.62430   1.000
    O188    O    0.31857   0.01014   0.60977   1.000
    O189    O    0.16992   0.11699   0.62855   1.000
    O190    O    0.67562   0.27284   0.63971   1.000
    O191    O    0.17132   0.27073   0.64130   1.000
    O192    O    0.00000   0.69881   0.64624   1.000
    O193    O    0.90973   0.91786   0.63187   1.000
    O194    O    0.95431   0.83984   0.65375   1.000
    O195    O    0.43122   0.69567   0.65014   1.000
    O196    O    0.40691   0.91477   0.63353   1.000
    O197    O    0.44641   0.83721   0.65589   1.000
    O198    O    0.62783   0.21775   0.67457   1.000
    O199    O    0.60832   0.29666   0.70157   1.000
    O200    O    0.12294   0.21648   0.67723   1.000
    O201    O    0.10519   0.29584   0.70310   1.000
    O202    O    0.00000   0.75713   0.68174   1.000
    O203    O    0.01262   0.67822   0.70909   1.000
    O204    O    0.57202   0.15891   0.71621   1.000
    O205    O    0.47630   0.75486   0.68459   1.000
    O206    O    0.49858   0.67639   0.71295   1.000
    O207    O    0.06666   0.15862   0.72006   1.000
    O208    O    0.03684   0.81734   0.72632   1.000
    O209    O    0.53082   0.81614   0.72811   1.000
    O210    O    0.08605   0.36610   0.72867   1.000
    O211    O    0.58750   0.36647   0.72814   1.000
    O212    O    0.53140   0.31618   0.77154   1.000
    O213    O    0.03736   0.31681   0.77318   1.000
    O214    O    0.01477   0.60970   0.73989   1.000
    O215    O    0.06801   0.65899   0.77967   1.000
    O216    O    0.52150   0.60837   0.74458   1.000
    O217    O    0.57373   0.65867   0.78355   1.000
    O218    O    0.51770   0.10878   0.75515   1.000
    O219    O    0.49566   0.17670   0.78677   1.000
    O220    O    0.01199   0.10944   0.76005   1.000
    O221    O    0.01155   0.17787   0.79077   1.000
    O222    O    0.08437   0.86673   0.77057   1.000
    O223    O    0.10418   0.79640   0.79628   1.000
    O224    O    0.58488   0.86658   0.77148   1.000
    O225    O    0.60661   0.79670   0.79810   1.000
    O226    O    0.47455   0.25506   0.81509   1.000
    O227    O    0.44597   0.33732   0.84381   1.000
    O228    O    0.00000   0.25669   0.81802   1.000
    O229    O    0.95423   0.33937   0.84592   1.000
    O230    O    0.12273   0.71696   0.82228   1.000
    O231    O    0.17032   0.61740   0.87096   1.000
    O232    O    0.42735   0.19603   0.84958   1.000
    O233    O    0.62724   0.71769   0.82517   1.000
    O234    O    0.67867   0.61936   0.87536   1.000
    O235    O    0.00000   0.19844   0.85373   1.000
    O236    O    0.16969   0.77129   0.85801   1.000
    O237    O    0.67297   0.77293   0.86002   1.000
    O238    O    0.40681   0.41487   0.86601   1.000
    O239    O    0.31876   0.51040   0.88960   1.000
    O240    O    0.90990   0.41742   0.86760   1.000
    O241    O    0.82616   0.51330   0.89275   1.000
    O242    O    0.37312   0.35597   0.91357   1.000
    O243    O    0.87671   0.35925   0.91626   1.000
loop_
    _geom_bond_atom_site_label_1
    _geom_bond_atom_site_label_2
    _geom_bond_distance
    _geom_bond_site_symmetry_2
    _ccdc_geom_bond_type
    C109   O112      0.63299      .   S
    C77    O112      0.63299      .   S
    C109   O113      1.13584  1_554   S
    C7     O113      1.13584      .   S
    C108   O114      0.63348      .   S
    C76    O114      0.63348      .   S
    C108   O115      1.13465  1_554   S
    C6     O115      1.13465      .   S
    C3     O116      1.12261      .   S
    C111   O116      1.12261      .   S
    C3     O117      1.18002      .   S
    C89    O117      1.18002      .   S
    C3     O118      1.40176  1_554   S
    C7     O118      1.40176      .   S
    C3     O119      1.13232      .   S
    C101   O119      1.13232  1_556   S
    C2     O120      1.12342      .   S
    C110   O120      1.12342      .   S
    C2     O121      1.17677      .   S
    C88    O121      1.17677      .   S
    C2     O122      1.40094      .   S
    C6     O122      1.40094  1_556   S
    C2     O123      1.13560      .   S
    C100   O123      1.13560  1_556   S
    C13    O124      0.54536      .   S
    C49    O124      0.54536      .   S
    C12    O125      0.54538      .   S
    C48    O125      0.54538      .   S
    C32    O126      0.54425      .   S
    C80    O126      0.54425      .   S
    C77    O127      0.63846      .   S
    C111   O127      0.63846      .   S
    C77    O128      0.75532      .   S
    C78    O128      0.75532      .   S
    C33    O129      0.54431      .   S
    C81    O129      0.54431      .   S
    C76    O130      0.63751      .   S
    C110   O130      0.63751      .   S
    C76    O131      0.75561      .   S
    C79    O131      0.75561      .   S
    C49    O132      0.67487      .   S
    C89    O132      0.67487      .   S
    C49    O133      0.69566      .   S
    C51    O133      0.69566      .   S
    C48    O134      0.67496      .   S
    C88    O134      0.67496      .   S
    C48    O135      0.69574      .   S
    C50    O135      0.69574      .   S
    C80    O136      0.69941      .   S
    C78    O136      0.69941      .   S
    C80    O137      0.69567      .   S
    C82    O137      0.69567  1_655   S
    C89    O138      0.67435      .   S
    C47    O138      0.67435      .   S
    C81    O139      0.69932      .   S
    C79    O139      0.69932      .   S
    C81    O140      0.69592      .   S
    C83    O140      0.69592      .   S
    C88    O141      0.67436      .   S
    C46    O141      0.67436      .   S
    C78    O142      0.69876  1_455   S
    C86    O142      0.69876      .   S
    C79    O143      0.69881      .   S
    C87    O143      0.69881      .   S
    C15    O144      0.54418      .   S
    C51    O144      0.54418      .   S
    C14    O145      0.54417      .   S
    C50    O145      0.54417      .   S
    C51    O146      0.69881      .   S
    C43    O146      0.69881      .   S
    C50    O147      0.69879      .   S
    C42    O147      0.69879  1_455   S
    C34    O148      0.54529  1_455   S
    C82    O148      0.54529      .   S
    C82    O149      0.67439      .   S
    C94    O149      0.67439      .   S
    C35    O150      0.54533      .   S
    C83    O150      0.54533      .   S
    C83    O151      0.67441      .   S
    C95    O151      0.67441      .   S
    C47    O152      0.54532      .   S
    C11    O152      0.54532      .   S
    C47    O153      0.69588      .   S
    C45    O153      0.69588      .   S
    C46    O154      0.54527      .   S
    C10    O154      0.54527      .   S
    C46    O155      0.69562  1_655   S
    C44    O155      0.69562      .   S
    C86    O156      0.54418      .   S
    C38    O156      0.54418      .   S
    C86    O157      0.69575      .   S
    C84    O157      0.69575      .   S
    C87    O158      0.54418      .   S
    C39    O158      0.54418      .   S
    C87    O159      0.69562      .   S
    C85    O159      0.69562      .   S
    C43    O160      0.69931      .   S
    C45    O160      0.69931      .   S
    C43    O161      0.75563      .   S
    C40    O161      0.75563      .   S
    C42    O162      0.69935      .   S
    C44    O162      0.69935      .   S
    C42    O163      0.75525      .   S
    C41    O163      0.75525      .   S
    C94    O164      0.67495      .   S
    C84    O164      0.67495      .   S
    C94    O165      1.17769      .   S
    C4     O165      1.17769      .   S
    C45    O166      0.54429      .   S
    C9     O166      0.54429      .   S
    C95    O167      0.67490      .   S
    C85    O167      0.67490      .   S
    C95    O168      1.17971      .   S
    C5     O168      1.17971      .   S
    C44    O169      0.54422      .   S
    C8     O169      0.54422      .   S
    C84    O170      0.54539      .   S
    C36    O170      0.54539      .   S
    C85    O171      0.54538      .   S
    C37    O171      0.54538      .   S
    C98    O172      0.63757      .   S
    C40    O172      0.63757      .   S
    C98    O173      1.12382  1_545   S
    C4     O173      1.12382      .   S
    C99    O174      0.63849      .   S
    C41    O174      0.63849      .   S
    C99    O175      1.12416  1_545   S
    C5     O175      1.12416      .   S
    C40    O176      0.63336      .   S
    C96    O176      0.63336      .   S
    C41    O177      0.63317      .   S
    C97    O177      0.63317      .   S
    C4     O178      1.13631      .   S
    C104   O178      1.13631      .   S
    C4     O179      1.40083  1_565   S
    C0     O179      1.40083      .   S
    C5     O180      1.13371      .   S
    C105   O180      1.13371      .   S
    C5     O181      1.40278      .   S
    C1     O181      1.40278  1_545   S
    C96    O182      1.13551      .   S
    C0     O182      1.13551      .   S
    C97    O183      1.13550      .   S
    C1     O183      1.13550      .   S
    C104   O184      0.63332      .   S
    C64    O184      0.63332      .   S
    C105   O185      0.63351      .   S
    C65    O185      0.63351      .   S
    C0     O186      1.12686      .   S
    C106   O186      1.12686  1_565   S
    C0     O187      1.17980      .   S
    C90    O187      1.17980      .   S
    C1     O188      1.12386      .   S
    C107   O188      1.12386  1_565   S
    C1     O189      1.17834      .   S
    C91    O189      1.17834      .   S
    C20    O190      0.54538      .   S
    C60    O190      0.54538      .   S
    C21    O191      0.54540      .   S
    C61    O191      0.54540      .   S
    C25    O192      0.45946      .   S
    C69    O192      0.45946      .   S
    C64    O193      0.63841      .   S
    C106   O193      0.63841      .   S
    C64    O194      0.77856      .   S
    C67    O194      0.77856  1_455   S
    C24    O195      0.54428      .   S
    C68    O195      0.54428      .   S
    C65    O196      0.63769      .   S
    C107   O196      0.63769      .   S
    C65    O197      0.75576      .   S
    C66    O197      0.75576      .   S
    C60    O198      0.67486      .   S
    C90    O198      0.67486      .   S
    C60    O199      0.69572      .   S
    C62    O199      0.69572      .   S
    C61    O200      0.67500      .   S
    C91    O200      0.67500      .   S
    C61    O201      0.69582      .   S
    C63    O201      0.69582      .   S
    C69    O202      0.68673      .   S
    C67    O202      0.68673      .   S
    C69    O203      0.66407      .   S
    C71    O203      0.66407      .   S
    C90    O204      0.67435      .   S
    C58    O204      0.67435      .   S
    C68    O205      0.69939      .   S
    C66    O205      0.69939      .   S
    C68    O206      0.69592      .   S
    C70    O206      0.69592      .   S
    C91    O207      0.67441      .   S
    C59    O207      0.67441      .   S
    C67    O208      0.66932      .   S
    C75    O208      0.66932      .   S
    C66    O209      0.69887      .   S
    C74    O209      0.69887      .   S
    C23    O210      0.54420      .   S
    C63    O210      0.54420      .   S
    C22    O211      0.54418      .   S
    C62    O211      0.54418      .   S
    C62    O212      0.69881      .   S
    C54    O212      0.69881      .   S
    C63    O213      0.66859      .   S
    C55    O213      0.66859      .   S
    C27    O214      0.54528      .   S
    C71    O214      0.54528      .   S
    C71    O215      0.67440      .   S
    C93    O215      0.67440      .   S
    C26    O216      0.54532      .   S
    C70    O216      0.54532      .   S
    C70    O217      0.67440      .   S
    C92    O217      0.67440      .   S
    C58    O218      0.54534      .   S
    C18    O218      0.54534      .   S
    C58    O219      0.69586      .   S
    C56    O219      0.69586      .   S
    C59    O220      0.54531      .   S
    C19    O220      0.54531      .   S
    C59    O221      0.66472      .   S
    C57    O221      0.66472      .   S
    C75    O222      0.54419      .   S
    C31    O222      0.54419      .   S
    C75    O223      0.69577      .   S
    C73    O223      0.69577      .   S
    C74    O224      0.54417      .   S
    C30    O224      0.54417      .   S
    C74    O225      0.69570      .   S
    C72    O225      0.69570      .   S
    C54    O226      0.69940      .   S
    C56    O226      0.69940      .   S
    C54    O227      0.75562      .   S
    C53    O227      0.75562      .   S
    C55    O228      0.68555      .   S
    C57    O228      0.68555      .   S
    C55    O229      0.77893  1_455   S
    C52    O229      0.77893      .   S
    C93    O230      0.67502      .   S
    C73    O230      0.67502      .   S
    C93    O231      1.17676      .   S
    C7     O231      1.17676      .   S
    C56    O232      0.54429      .   S
    C16    O232      0.54429      .   S
    C92    O233      0.67491      .   S
    C72    O233      0.67491      .   S
    C92    O234      1.18001      .   S
    C6     O234      1.18001      .   S
    C57    O235      0.45964      .   S
    C17    O235      0.45964      .   S
    C73    O236      0.54536      .   S
    C29    O236      0.54536      .   S
    C72    O237      0.54537      .   S
    C28    O237      0.54537      .   S
    C103   O238      0.63750      .   S
    C53    O238      0.63750      .   S
    C103   O239      1.12389      .   S
    C7     O239      1.12389      .   S
    C102   O240      0.63830      .   S
    C52    O240      0.63830      .   S
    C102   O241      1.12533      .   S
    C6     O241      1.12533      .   S
    C53    O242      0.63350      .   S
    C101   O242      0.63350      .   S
    C52    O243      0.63324      .   S
    C100   O243      0.63324      .   S
