# CIF file generated by openbabel 2.4.90, see http://openbabel.sf.net
data_I
_chemical_name_common ''
_cell_length_a 7.983
_cell_length_b 14.441
_cell_length_c 14.453
_cell_angle_alpha 89.786
_cell_angle_beta 89.654
_cell_angle_gamma 85.679
_space_group_name_H-M_alt 'P 1'
_space_group_name_Hall 'P 1'
loop_
    _symmetry_equiv_pos_as_xyz
    x,y,z
loop_
    _atom_site_label
    _atom_site_type_symbol
    _atom_site_fract_x
    _atom_site_fract_y
    _atom_site_fract_z
    _atom_site_occupancy
    Zr0     Zr   0.73843   0.06645   0.56955   1.000
    Zr1     Zr   0.22962   0.06291   0.57462   1.000
    Zr2     Zr   0.77342   0.43727   0.07489   1.000
    Zr3     Zr   0.25704   0.43314   0.06931   1.000
    Zr4     Zr   0.77362   0.93757   0.42502   1.000
    Zr5     Zr   0.25932   0.93323   0.43029   1.000
    Zr6     Zr   0.74098   0.56670   0.92999   1.000
    Zr7     Zr   0.22985   0.56332   0.92478   1.000
    O8      O    0.24344   0.49823   0.99705   1.000
    O9      O    0.75720   0.50199   0.00244   1.000
    O10     O    0.75603   0.00201   0.49729   1.000
    O11     O    0.24447   0.99807   0.50246   1.000
    N12     N    0.48677   0.22820   0.27682   1.000
    O13     O    0.40358   0.30433   0.20020   1.000
    O14     O    0.59113   0.17073   0.39321   1.000
    O15     O    0.58670   0.10919   0.33256   1.000
    N16     N    0.02413   0.27252   0.78078   1.000
    O17     O    0.09702   0.19476   0.70466   1.000
    O18     O    0.91666   0.33147   0.89732   1.000
    O19     O    0.92515   0.39291   0.83676   1.000
    N20     N    0.51324   0.27171   0.77814   1.000
    O21     O    0.59519   0.19551   0.70122   1.000
    O22     O    0.40594   0.32905   0.89378   1.000
    O23     O    0.41600   0.39105   0.83387   1.000
    N24     N    0.02411   0.77296   0.71887   1.000
    O25     O    0.09721   0.69518   0.79492   1.000
    O26     O    0.91683   0.83186   0.60255   1.000
    O27     O    0.92437   0.89318   0.66275   1.000
    N28     N    0.51375   0.77159   0.72158   1.000
    O29     O    0.59621   0.69548   0.79847   1.000
    O30     O    0.40692   0.82903   0.60604   1.000
    O31     O    0.41616   0.89086   0.66568   1.000
    N32     N    0.98964   0.22730   0.28087   1.000
    O33     O    0.91120   0.30518   0.20475   1.000
    O34     O    0.09089   0.16841   0.39723   1.000
    O35     O    0.08198   0.10693   0.33702   1.000
    N36     N    0.48953   0.72849   0.22277   1.000
    O37     O    0.40606   0.80458   0.29932   1.000
    O38     O    0.59486   0.67097   0.10650   1.000
    O39     O    0.58806   0.60928   0.16718   1.000
    N40     N    0.99088   0.72754   0.21929   1.000
    O41     O    0.91220   0.80542   0.29534   1.000
    O42     O    0.09176   0.66870   0.10257   1.000
    O43     O    0.08197   0.60708   0.16305   1.000
loop_
    _geom_bond_atom_site_label_1
    _geom_bond_atom_site_label_2
    _geom_bond_distance
    _geom_bond_site_symmetry_2
    _ccdc_geom_bond_type
    Zr3    O8        1.40176  1_554   S
    Zr7    O8        1.40176      .   S
    Zr2    O9        1.40094      .   S
    Zr6    O9        1.40094  1_556   S
    Zr4    O10       1.40083  1_565   S
    Zr0    O10       1.40083      .   S
    Zr5    O11       1.40278      .   S
    Zr1    O11       1.40278  1_545   S
    N12    O13       1.66297      .   S
    Zr3    O13       2.84257      .   S
    N12    O14       2.02857      .   S
    Zr0    O14       3.14430      .   S
    N12    O15       2.00750      .   S
    Zr4    O15       3.09785  1_565   S
    N16    O17       1.64711      .   S
    Zr1    O17       2.82437      .   S
    N16    O18       2.04474  1_455   S
    Zr2    O18       3.15576  1_554   S
    N16    O19       2.02424  1_455   S
    Zr6    O19       3.11782      .   S
    N20    O21       1.66328      .   S
    Zr0    O21       2.84284      .   S
    N20    O22       2.02467      .   S
    Zr3    O22       3.13548  1_554   S
    N20    O23       2.00572      .   S
    Zr7    O23       3.09308      .   S
    N24    O25       1.64623      .   S
    Zr7    O25       2.82198      .   S
    N24    O26       2.04450  1_455   S
    Zr4    O26       3.15653      .   S
    N24    O27       2.02350  1_455   S
    Zr0    O27       3.11739  1_545   S
    N28    O29       1.66345      .   S
    Zr6    O29       2.84311      .   S
    N28    O30       2.02588      .   S
    Zr5    O30       3.13780      .   S
    N28    O31       2.00541      .   S
    Zr1    O31       3.09262  1_545   S
    N32    O33       1.66138      .   S
    Zr2    O33       2.83786      .   S
    N32    O34       2.02649  1_655   S
    Zr1    O34       3.14199      .   S
    N32    O35       2.00683  1_655   S
    Zr5    O35       3.09447  1_565   S
    N36    O37       1.66293      .   S
    Zr5    O37       2.84225      .   S
    N36    O38       2.02713      .   S
    Zr6    O38       3.14068  1_556   S
    N36    O39       2.00662      .   S
    Zr2    O39       3.09613      .   S
    N40    O41       1.66200      .   S
    Zr4    O41       2.83935      .   S
    N40    O42       2.02675  1_655   S
    Zr7    O42       3.14262  1_556   S
    N40    O43       2.00709  1_655   S
    Zr3    O43       3.09380      .   S
