# CIF file generated by openbabel 2.4.90, see http://openbabel.sf.net
data_I
_chemical_name_common ''
_cell_length_a 7.983
_cell_length_b 14.441
_cell_length_c 14.453
_cell_angle_alpha 89.786
_cell_angle_beta 89.654
_cell_angle_gamma 85.679
_space_group_name_H-M_alt 'P 1'
_space_group_name_Hall 'P 1'
loop_
    _symmetry_equiv_pos_as_xyz
    x,y,z
loop_
    _atom_site_label
    _atom_site_type_symbol
    _atom_site_fract_x
    _atom_site_fract_y
    _atom_site_fract_z
    _atom_site_occupancy
    N0      N    0.48677   0.22820   0.27682   1.000
    N1      N    0.02413   0.27252   0.78078   1.000
    N2      N    0.51324   0.27171   0.77814   1.000
    N3      N    0.02411   0.77296   0.71887   1.000
    N4      N    0.51375   0.77159   0.72158   1.000
    N5      N    0.98964   0.22730   0.28087   1.000
    N6      N    0.48953   0.72849   0.22277   1.000
    N7      N    0.99088   0.72754   0.21929   1.000
    Zr8     Zr   0.24447   0.99807   0.50246   1.000
    O9      O    0.16322   0.05250   0.41974   1.000
    O10     O    0.32527   0.90132   0.40089   1.000
    O11     O    0.32570   0.91355   0.55425   1.000
    O12     O    0.16768   0.08324   0.44984   1.000
    O13     O    0.17075   0.09641   0.60356   1.000
    O14     O    0.33031   0.94447   0.58407   1.000
    Zr15    Zr   0.24344   0.49823   0.99705   1.000
    O16     O    0.16760   0.58347   0.04981   1.000
    O17     O    0.32972   0.44464   0.91546   1.000
    O18     O    0.17033   0.59671   0.89598   1.000
    O19     O    0.32469   0.41364   0.94541   1.000
    O20     O    0.16271   0.55265   0.08005   1.000
    O21     O    0.32351   0.40128   0.09863   1.000
    Zr22    Zr   0.75603   0.00201   0.49729   1.000
    O23     O    0.67561   0.09876   0.59925   1.000
    O24     O    0.84020   0.94760   0.58002   1.000
    O25     O    0.67358   0.08637   0.44525   1.000
    O26     O    0.67136   0.05560   0.41492   1.000
    O27     O    0.83411   0.90372   0.39632   1.000
    O28     O    0.83643   0.91694   0.54992   1.000
    Zr29    Zr   0.75720   0.50199   0.00244   1.000
    O30     O    0.84117   0.44745   0.91960   1.000
    O31     O    0.67603   0.58648   0.05447   1.000
    O32     O    0.67671   0.59873   0.90046   1.000
    O33     O    0.83693   0.41673   0.94988   1.000
    O34     O    0.67263   0.55563   0.08481   1.000
    O35     O    0.83420   0.40358   0.10360   1.000
loop_
    _geom_bond_atom_site_label_1
    _geom_bond_atom_site_label_2
    _geom_bond_distance
    _geom_bond_site_symmetry_2
    _ccdc_geom_bond_type
    Zr8    O9        1.54700  1_565   S
    N5     O9        3.43355  1_655   S
    Zr8    O10       2.09544      .   S
    N6     O10       3.75372      .   S
    Zr8    O11       1.53311      .   S
    N4     O11       3.44218      .   S
    Zr8    O12       1.53357  1_565   S
    N5     O12       3.44533  1_655   S
    Zr8    O13       2.09229  1_565   S
    N1     O13       3.73658      .   S
    Zr8    O14       1.54375      .   S
    N4     O14       3.43142      .   S
    Zr15   O16       1.53372  1_556   S
    N7     O16       3.44578  1_655   S
    Zr15   O17       1.54287      .   S
    N2     O17       3.43111      .   S
    Zr15   O18       2.08959      .   S
    N3     O18       3.73279      .   S
    Zr15   O19       1.53339      .   S
    N2     O19       3.44091      .   S
    Zr15   O20       1.54713  1_556   S
    N7     O20       3.43401  1_655   S
    Zr15   O21       2.09412  1_556   S
    N0     O21       3.75234      .   S
    Zr22   O23       2.09878      .   S
    N2     O23       3.75793      .   S
    Zr22   O24       1.55625  1_545   S
    N3     O24       3.46152  1_455   S
    Zr22   O25       1.53665      .   S
    N0     O25       3.44836      .   S
    Zr22   O26       1.54815      .   S
    N0     O26       3.43703      .   S
    Zr22   O27       2.09863  1_545   S
    N7     O27       3.75705      .   S
    Zr22   O28       1.54273  1_545   S
    N3     O28       3.47372  1_455   S
    Zr29   O30       1.55590  1_554   S
    N1     O30       3.46218  1_455   S
    Zr29   O31       1.53489      .   S
    N6     O31       3.44570      .   S
    Zr29   O32       2.09717  1_554   S
    N4     O32       3.75632      .   S
    Zr29   O33       1.54309  1_554   S
    N1     O33       3.47392  1_455   S
    Zr29   O34       1.54648      .   S
    N6     O34       3.43450      .   S
    Zr29   O35       2.09724      .   S
    N5     O35       3.75482      .   S
