# CIF file generated by openbabel 2.4.90, see http://openbabel.sf.net
data_I
_chemical_name_common ''
_cell_length_a 9.1965
_cell_length_b 12.7
_cell_length_c 13.4963
_cell_angle_alpha 116.348
_cell_angle_beta 97.1405
_cell_angle_gamma 101.028
_space_group_name_H-M_alt 'P 1'
_space_group_name_Hall 'P 1'
loop_
    _symmetry_equiv_pos_as_xyz
    x,y,z
loop_
    _atom_site_label
    _atom_site_type_symbol
    _atom_site_fract_x
    _atom_site_fract_y
    _atom_site_fract_z
    _atom_site_occupancy
    C0      C    0.19389   0.60428   0.46311   1.000
    C1      C    0.26971   0.65248   0.31481   1.000
    C2      C    0.17889   0.79994   0.46922   1.000
    C3      C    0.79990   0.39391   0.53424   1.000
    C4      C    0.72429   0.34558   0.68253   1.000
    C5      C    0.81587   0.19852   0.52834   1.000
    N6      N    0.15333   0.71405   0.50825   1.000
    N7      N    0.25053   0.57743   0.36564   1.000
    N8      N    0.23277   0.76283   0.37007   1.000
    N9      N    0.84079   0.28428   0.48914   1.000
    N10     N    0.74323   0.42063   0.63169   1.000
    N11     N    0.76163   0.23539   0.62734   1.000
    O12     O    0.18190   0.53731   0.50651   1.000
    O13     O    0.31864   0.62404   0.22882   1.000
    O14     O    0.15595   0.90032   0.51880   1.000
    O15     O    0.81168   0.46087   0.49085   1.000
    O16     O    0.67526   0.37389   0.76847   1.000
    O17     O    0.83952   0.09838   0.47898   1.000
loop_
    _geom_bond_atom_site_label_1
    _geom_bond_atom_site_label_2
    _geom_bond_distance
    _geom_bond_site_symmetry_2
    _ccdc_geom_bond_type
    O13    C1        1.22462      .   S
    C1     N7        1.39871      .   S
    C1     N8        1.39761      .   S
    N7     C0        1.39935      .   S
    N8     C2        1.39736      .   S
    C0     O12       1.22506      .   S
    C0     N6        1.39833      .   S
    C2     N6        1.40187      .   S
    C2     O14       1.22404      .   S
    O17    C5        1.22403      .   S
    N9     C5        1.40180      .   S
    N9     C3        1.39833      .   S
    O15    C3        1.22503      .   S
    C5     N11       1.39745      .   S
    C3     N10       1.39940      .   S
    N11    C4        1.39761      .   S
    N10    C4        1.39871      .   S
    C4     O16       1.22464      .   S
