# CIF file generated by openbabel 2.4.90, see http://openbabel.sf.net
data_I
_chemical_name_common ''
_cell_length_a 9.1965
_cell_length_b 12.7
_cell_length_c 13.4963
_cell_angle_alpha 116.348
_cell_angle_beta 97.1405
_cell_angle_gamma 101.028
_space_group_name_H-M_alt 'P 1'
_space_group_name_Hall 'P 1'
loop_
    _symmetry_equiv_pos_as_xyz
    x,y,z
loop_
    _atom_site_label
    _atom_site_type_symbol
    _atom_site_fract_x
    _atom_site_fract_y
    _atom_site_fract_z
    _atom_site_occupancy
    Mc0     Mc   0.79164   0.15410   0.71463   1.000
    Mc1     Mc   0.81107   0.21522   0.33305   1.000
    Mc2     Mc   0.71069   0.62453   0.74689   1.000
    Mc3     Mc   0.18296   0.78308   0.66431   1.000
    Mc4     Mc   0.26261   0.41660   0.26676   1.000
    Mc5     Mc   0.20269   0.84437   0.28301   1.000
