# CIF file generated by openbabel 2.4.90, see http://openbabel.sf.net
data_I
_chemical_name_common ''
_cell_length_a 9.1965
_cell_length_b 12.7
_cell_length_c 13.4963
_cell_angle_alpha 116.348
_cell_angle_beta 97.1405
_cell_angle_gamma 101.028
_space_group_name_H-M_alt 'P 1'
_space_group_name_Hall 'P 1'
loop_
    _symmetry_equiv_pos_as_xyz
    x,y,z
loop_
    _atom_site_label
    _atom_site_type_symbol
    _atom_site_fract_x
    _atom_site_fract_y
    _atom_site_fract_z
    _atom_site_occupancy
    Zr0     Zr   0.39174   0.05831   0.10583   1.000
    Zr1     Zr   0.60220   0.93992   0.89154   1.000
    Zr2     Zr   0.99698   0.99905   0.99867   1.000
    Zr3     Zr   0.77807   0.92209   0.92209   1.000
    O4      O    0.69014   0.93101   0.90681   1.000
    O5      O    0.88752   0.96057   0.96038   1.000
    N6      N    0.77913   0.31238   0.58129   1.000
    O7      O    0.65300   0.73892   0.78801   1.000
    N8      N    0.21507   0.68585   0.41614   1.000
    C9      C    0.19892   0.93051   0.16365   1.000
    O10     O    0.11905   0.94617   0.11102   1.000
    O11     O    0.19065   0.89480   0.20444   1.000
    O12     O    0.27988   0.96863   0.15690   1.000
    C13     C    0.76304   0.09981   0.13115   1.000
    O14     O    0.63845   0.08064   0.11283   1.000
    O15     O    0.69106   0.05104   0.05925   1.000
    O16     O    0.77178   0.14108   0.20470   1.000
    O17     O    0.85373   0.07896   0.10191   1.000
    C18     C    0.79515   0.06785   0.83388   1.000
    O19     O    0.80350   0.10364   0.79318   1.000
    O20     O    0.71417   0.02962   0.84053   1.000
    O21     O    0.87500   0.05218   0.88652   1.000
    C22     C    0.30100   0.22665   0.15928   1.000
    O23     O    0.27796   0.29486   0.19440   1.000
    O24     O    0.20370   0.15314   0.09808   1.000
    O25     O    0.30239   0.16796   0.12487   1.000
    O26     O    0.34969   0.19364   0.16380   1.000
    C27     C    0.23094   0.89846   0.86620   1.000
    O28     O    0.35553   0.91764   0.88453   1.000
    O29     O    0.30291   0.94723   0.93810   1.000
    O30     O    0.14024   0.91926   0.89544   1.000
    O31     O    0.22221   0.85719   0.79267   1.000
loop_
    _geom_bond_atom_site_label_1
    _geom_bond_atom_site_label_2
    _geom_bond_distance
    _geom_bond_site_symmetry_2
    _ccdc_geom_bond_type
    Zr1    O4        0.85064      .   S
    Zr3    O4        0.85064      .   S
    Zr3    O5        0.98865      .   S
    Zr2    O5        0.98865      .   S
    N6     O7        5.31666      .   S
    Zr1    O7        2.47778      .   S
    C9     O10       1.06552      .   S
    Zr2    O10       2.18622  1_656   S
    C9     O11       0.85630      .   S
    N8     O11       4.69616      .   S
    C9     O12       0.84564      .   S
    Zr0    O12       1.80426  1_545   S
    C13    O14       1.09672      .   S
    Zr0    O14       2.21672      .   S
    C13    O15       0.95572      .   S
    Zr1    O15       2.01161  1_566   S
    C13    O16       0.87670      .   S
    N6     O16       4.54024      .   S
    C13    O17       0.99752      .   S
    Zr2    O17       2.10223  1_566   S
    C18    O19       0.85620      .   S
    N6     O19       4.69620      .   S
    C18    O20       0.84575      .   S
    Zr1    O20       1.80433  1_565   S
    C18    O21       1.06543      .   S
    Zr2    O21       2.18607  1_565   S
    C22    O23       0.86650      .   S
    N8     O23       4.72077      .   S
    C22    O24       1.08012      .   S
    Zr2    O24       2.20359  1_666   S
    C22    O25       0.68505      .   S
    Zr0    O25       1.68903      .   S
    C22    O26       0.68388      .   S
    Zr0    O26       1.68858      .   S
    C27    O28       1.09666      .   S
    Zr1    O28       2.21646      .   S
    C27    O29       0.95573      .   S
    Zr0    O29       2.01160  1_544   S
    C27    O30       0.99741      .   S
    Zr2    O30       2.10184  1_655   S
    C27    O31       0.87662      .   S
    N8     O31       4.53990      .   S
