# CIF file generated by openbabel 2.4.90, see http://openbabel.sf.net
data_I
_chemical_name_common ''
_cell_length_a 13.592
_cell_length_b 22.212
_cell_length_c 22.222
_cell_angle_alpha 72.165
_cell_angle_beta 90.017
_cell_angle_gamma 89.997
_space_group_name_H-M_alt 'P 1'
_space_group_name_Hall 'P 1'
loop_
    _symmetry_equiv_pos_as_xyz
    x,y,z
loop_
    _atom_site_label
    _atom_site_type_symbol
    _atom_site_fract_x
    _atom_site_fract_y
    _atom_site_fract_z
    _atom_site_occupancy
    Zn0     Zn   0.44591   0.00003   0.75000   1.000
    Zn1     Zn   0.44591   0.49997   0.24999   1.000
    Zn2     Zn   0.44591   0.50001   0.74999   1.000
    Zn3     Zn   0.94593   0.99997   0.25000   1.000
    Zn4     Zn   0.94593   0.00003   0.75000   1.000
    Zn5     Zn   0.94592   0.49997   0.24999   1.000
    Zn6     Zn   0.94593   0.50001   0.74999   1.000
    Zn7     Zn   0.05411   0.24999   0.99996   1.000
    Zn8     Zn   0.05412   0.24998   0.49997   1.000
    Zn9     Zn   0.05413   0.74996   0.50001   1.000
    Zn10    Zn   0.05413   0.74996   0.00000   1.000
    Zn11    Zn   0.55413   0.24999   0.99996   1.000
    Zn12    Zn   0.55414   0.24998   0.49997   1.000
    Zn13    Zn   0.55415   0.74996   0.50001   1.000
    Zn14    Zn   0.55414   0.74997   0.90000   1.000
    Zn15    Zn   0.44591   0.99997   0.25000   1.000
