# CIF file generated by openbabel 2.4.90, see http://openbabel.sf.net
data_I
_chemical_name_common 'VESTA_phase_1'
_cell_length_a 16.019
_cell_length_b 20.377
_cell_length_c 12.161
_cell_angle_alpha 114.729
_cell_angle_beta 98.091
_cell_angle_gamma 89.99
_space_group_name_H-M_alt 'P 1'
_space_group_name_Hall 'P 1'
loop_
    _symmetry_equiv_pos_as_xyz
    x,y,z
loop_
    _atom_site_label
    _atom_site_type_symbol
    _atom_site_fract_x
    _atom_site_fract_y
    _atom_site_fract_z
    _atom_site_occupancy
    Cd0     Cd   0.00001   0.99999   0.50002   1.000
    Cd1     Cd   0.00001   0.49998   0.50002   1.000
    Cd2     Cd   0.50000   0.99999   0.50002   1.000
    Cd3     Cd   0.50000   0.49998   0.50002   1.000
    Cd4     Cd   0.25000   0.24999   0.50001   1.000
    Cd5     Cd   0.25000   0.74998   0.50001   1.000
    Cd6     Cd   0.75000   0.24999   0.50002   1.000
    Cd7     Cd   0.75000   0.74998   0.50001   1.000
    H8      H    0.48771   0.40204   0.64850   1.000
    H9      H    0.48771   0.90203   0.64850   1.000
    H10     H    0.98770   0.40203   0.64849   1.000
    H11     H    0.98770   0.90203   0.64849   1.000
    H12     H    0.44538   0.40350   0.83700   1.000
    H13     H    0.44538   0.90350   0.83759   1.000
    H14     H    0.94537   0.40350   0.83759   1.000
    H15     H    0.94537   0.90350   0.83759   1.000
    H16     H    0.35128   0.11501   0.90992   1.000
    H17     H    0.35128   0.61500   0.90992   1.000
    H18     H    0.85128   0.11501   0.90993   1.000
    H19     H    0.85128   0.61501   0.90990   1.000
    H20     H    0.39948   0.10473   0.71992   1.000
    H21     H    0.39947   0.60472   0.71992   1.000
    H22     H    0.89947   0.10473   0.71990   1.000
    H23     H    0.89947   0.60472   0.71992   1.000
    H24     H    0.26138   0.07790   0.35120   1.000
    H25     H    0.26138   0.57790   0.35127   1.000
    H26     H    0.76137   0.07790   0.35128   1.000
    H27     H    0.76137   0.57790   0.35128   1.000
    H28     H    0.30351   0.48482   0.16211   1.000
    H29     H    0.30352   0.98483   0.16211   1.000
    H30     H    0.80351   0.48482   0.16211   1.000
    H31     H    0.80351   0.98483   0.16211   1.000
    H32     H    0.40022   0.16003   0.09156   1.000
    H33     H    0.40022   0.66002   0.09156   1.000
    H34     H    0.90022   0.16003   0.09150   1.000
    H35     H    0.90022   0.66003   0.09156   1.000
    H36     H    0.35191   0.24475   0.28139   1.000
    H37     H    0.35191   0.74475   0.28139   1.000
    H38     H    0.85191   0.24476   0.28140   1.000
    H39     H    0.85191   0.74475   0.28140   1.000
    H40     H    0.01230   0.09793   0.35154   1.000
    H41     H    0.01230   0.59793   0.35154   1.000
    H42     H    0.51229   0.09793   0.35150   1.000
    H43     H    0.51229   0.59793   0.35153   1.000
    H44     H    0.05463   0.09647   0.16244   1.000
    H45     H    0.05463   0.59647   0.16244   1.000
    H46     H    0.55462   0.09647   0.16244   1.000
    H47     H    0.55462   0.59647   0.16244   1.000
    H48     H    0.14872   0.38496   0.09011   1.000
    H49     H    0.14872   0.88495   0.09010   1.000
    H50     H    0.64872   0.38496   0.09011   1.000
    H51     H    0.64872   0.88496   0.09011   1.000
    H52     H    0.10052   0.39524   0.28011   1.000
    H53     H    0.10052   0.89524   0.28011   1.000
    H54     H    0.60052   0.39525   0.28010   1.000
    H55     H    0.60052   0.89524   0.28011   1.000
    H56     H    0.23862   0.42207   0.64870   1.000
    H57     H    0.23863   0.92207   0.64875   1.000
    H58     H    0.73862   0.42207   0.64876   1.000
    H59     H    0.73863   0.92207   0.64876   1.000
    H60     H    0.19649   0.01514   0.83792   1.000
    H61     H    0.19649   0.51514   0.83793   1.000
    H62     H    0.69648   0.01514   0.83793   1.000
    H63     H    0.69649   0.51514   0.83793   1.000
    H64     H    0.09978   0.33994   0.90847   1.000
    H65     H    0.09978   0.83994   0.90846   1.000
    H66     H    0.59979   0.33994   0.90847   1.000
    H67     H    0.59978   0.83994   0.90847   1.000
    H68     H    0.14809   0.25522   0.71863   1.000
    H69     H    0.14809   0.75521   0.71863   1.000
    H70     H    0.64810   0.25522   0.71864   1.000
    H71     H    0.64809   0.75521   0.71863   1.000
    H72     H    0.37473   0.45971   0.10000   1.000
    H73     H    0.37473   0.95971   0.00000   1.000
    H74     H    0.87473   0.45971   0.30000   1.000
    H75     H    0.87473   0.95971   0.30000   1.000
    H76     H    0.12527   0.04025   0.99997   1.000
    H77     H    0.12527   0.54025   0.99990   1.000
    H78     H    0.62527   0.04026   0.99997   1.000
    H79     H    0.62527   0.54026   0.99997   1.000
    C80     C    0.07053   0.32654   0.41952   1.000
    C81     C    0.07053   0.82653   0.41952   1.000
    C82     C    0.57053   0.32654   0.41952   1.000
    C83     C    0.57053   0.82654   0.41952   1.000
    C84     C    0.39833   0.01137   0.89552   1.000
    C85     C    0.39834   0.51137   0.89550   1.000
    C86     C    0.89832   0.01137   0.89552   1.000
    C87     C    0.89833   0.51136   0.89552   1.000
    C88     C    0.45892   0.44885   0.71062   1.000
    C89     C    0.45892   0.94884   0.71062   1.000
    C90     C    0.95891   0.44884   0.71062   1.000
    C91     C    0.95891   0.94884   0.71062   1.000
    C92     C    0.43510   0.45018   0.81654   1.000
    C93     C    0.43511   0.95018   0.81654   1.000
    C94     C    0.93510   0.45018   0.81654   1.000
    C95     C    0.93510   0.95018   0.81654   1.000
    C96     C    0.38419   0.06789   0.85880   1.000
    C97     C    0.38418   0.56788   0.85879   1.000
    C98     C    0.88418   0.06789   0.85880   1.000
    C99     C    0.88418   0.56788   0.85880   1.000
    C100    C    0.41016   0.06188   0.75077   1.000
    C101    C    0.41017   0.56188   0.75078   1.000
    C102    C    0.91016   0.06188   0.75070   1.000
    C103    C    0.91016   0.56188   0.75070   1.000
    C104    C    0.17940   0.11656   0.58015   1.000
    C105    C    0.17940   0.61656   0.58015   1.000
    C106    C    0.67940   0.11656   0.58015   1.000
    C107    C    0.67940   0.61656   0.58015   1.000
    C108    C    0.35184   0.06370   0.10503   1.000
    C109    C    0.35185   0.56369   0.10500   1.000
    C110    C    0.85184   0.06370   0.10503   1.000
    C111    C    0.85184   0.56369   0.10503   1.000
    C112    C    0.29066   0.09363   0.28940   1.000
    C113    C    0.29067   0.59362   0.28948   1.000
    C114    C    0.79066   0.09363   0.28948   1.000
    C115    C    0.79066   0.59362   0.28948   1.000
    C116    C    0.31437   0.04201   0.18352   1.000
    C117    C    0.31436   0.54201   0.18352   1.000
    C118    C    0.81436   0.04201   0.18353   1.000
    C119    C    0.81436   0.54201   0.18352   1.000
    C120    C    0.36670   0.13852   0.14223   1.000
    C121    C    0.36670   0.63852   0.14222   1.000
    C122    C    0.86670   0.13853   0.14223   1.000
    C123    C    0.86670   0.63852   0.14220   1.000
    C124    C    0.34072   0.18652   0.25019   1.000
    C125    C    0.34073   0.68652   0.25020   1.000
    C126    C    0.84072   0.18653   0.25020   1.000
    C127    C    0.84072   0.68652   0.25020   1.000
    C128    C    0.42947   0.17343   0.58051   1.000
    C129    C    0.42947   0.67343   0.58051   1.000
    C130    C    0.92947   0.17343   0.58051   1.000
    C131    C    0.92947   0.67343   0.58050   1.000
    C132    C    0.10168   0.48860   0.10451   1.000
    C133    C    0.10167   0.98860   0.10450   1.000
    C134    C    0.60167   0.48860   0.10451   1.000
    C135    C    0.60167   0.98860   0.10451   1.000
    C136    C    0.04109   0.05112   0.28941   1.000
    C137    C    0.04110   0.55112   0.28942   1.000
    C138    C    0.54108   0.05112   0.28941   1.000
    C139    C    0.54108   0.55112   0.28941   1.000
    C140    C    0.06490   0.04979   0.18349   1.000
    C141    C    0.06490   0.54979   0.18349   1.000
    C142    C    0.56490   0.04979   0.18349   1.000
    C143    C    0.56489   0.54979   0.18349   1.000
    C144    C    0.11581   0.43208   0.14120   1.000
    C145    C    0.11582   0.93208   0.14123   1.000
    C146    C    0.61581   0.43209   0.14120   1.000
    C147    C    0.61581   0.93208   0.14123   1.000
    C148    C    0.08985   0.43809   0.24926   1.000
    C149    C    0.08984   0.93809   0.24925   1.000
    C150    C    0.58984   0.43809   0.24926   1.000
    C151    C    0.58983   0.93809   0.24920   1.000
    C152    C    0.32060   0.38341   0.41988   1.000
    C153    C    0.32060   0.88341   0.41988   1.000
    C154    C    0.82060   0.38341   0.41988   1.000
    C155    C    0.82060   0.88341   0.41988   1.000
    C156    C    0.14816   0.43627   0.89500   1.000
    C157    C    0.14816   0.93627   0.89499   1.000
    C158    C    0.64815   0.43627   0.89500   1.000
    C159    C    0.64815   0.93627   0.89500   1.000
    C160    C    0.20935   0.40634   0.71056   1.000
    C161    C    0.20934   0.90634   0.71055   1.000
    C162    C    0.70934   0.40635   0.71056   1.000
    C163    C    0.70934   0.90634   0.71055   1.000
    C164    C    0.18563   0.45796   0.81650   1.000
    C165    C    0.18564   0.95795   0.81651   1.000
    C166    C    0.68563   0.45796   0.81651   1.000
    C167    C    0.68564   0.95796   0.81651   1.000
    C168    C    0.13329   0.36145   0.85700   1.000
    C169    C    0.13330   0.86144   0.85780   1.000
    C170    C    0.63330   0.36145   0.85781   1.000
    C171    C    0.63330   0.86144   0.85780   1.000
    C172    C    0.15929   0.31345   0.74983   1.000
    C173    C    0.15928   0.81344   0.74982   1.000
    C174    C    0.65928   0.31345   0.74983   1.000
    C175    C    0.65928   0.81344   0.74983   1.000
    S176    S    0.09803   0.24335   0.35060   1.000
    S177    S    0.09803   0.74335   0.35065   1.000
    S178    S    0.59803   0.24335   0.35065   1.000
    S179    S    0.59803   0.74335   0.35065   1.000
    S180    S    0.15234   0.06716   0.64821   1.000
    S181    S    0.15234   0.56716   0.64822   1.000
    S182    S    0.65233   0.06716   0.64820   1.000
    S183    S    0.65233   0.56716   0.64822   1.000
    S184    S    0.40197   0.25662   0.64938   1.000
    S185    S    0.40197   0.75662   0.64938   1.000
    S186    S    0.90197   0.25662   0.64938   1.000
    S187    S    0.90197   0.75662   0.64938   1.000
    S188    S    0.34767   0.43280   0.35181   1.000
    S189    S    0.34767   0.93280   0.35181   1.000
    S190    S    0.84766   0.43281   0.35181   1.000
    S191    S    0.84766   0.93281   0.35180   1.000
    N192    N    0.05000   0.38654   0.46930   1.000
    N193    N    0.05001   0.88654   0.46938   1.000
    N194    N    0.55000   0.38654   0.46939   1.000
    N195    N    0.55000   0.88654   0.46939   1.000
    N196    N    0.44834   0.00439   0.67792   1.000
    N197    N    0.44834   0.50439   0.67792   1.000
    N198    N    0.94833   0.00439   0.67792   1.000
    N199    N    0.94834   0.50439   0.67792   1.000
    N200    N    0.19958   0.15207   0.53078   1.000
    N201    N    0.19958   0.65206   0.53078   1.000
    N202    N    0.69958   0.15207   0.53078   1.000
    N203    N    0.69958   0.65206   0.53078   1.000
    N204    N    0.30186   0.16549   0.32255   1.000
    N205    N    0.30185   0.66549   0.32254   1.000
    N206    N    0.80185   0.16549   0.32255   1.000
    N207    N    0.80185   0.66549   0.32250   1.000
    N208    N    0.45000   0.11343   0.53065   1.000
    N209    N    0.45000   0.61343   0.53065   1.000
    N210    N    0.94999   0.11343   0.53065   1.000
    N211    N    0.95000   0.61343   0.53065   1.000
    N212    N    0.05166   0.49557   0.32211   1.000
    N213    N    0.05167   0.99557   0.32211   1.000
    N214    N    0.55166   0.49558   0.32211   1.000
    N215    N    0.55166   0.99557   0.32211   1.000
    N216    N    0.30042   0.34791   0.46925   1.000
    N217    N    0.30042   0.84790   0.46925   1.000
    N218    N    0.80041   0.34791   0.46925   1.000
    N219    N    0.80042   0.84790   0.46925   1.000
    N220    N    0.19814   0.33448   0.67748   1.000
    N221    N    0.19815   0.83447   0.67748   1.000
    N222    N    0.69815   0.33448   0.67749   1.000
    N223    N    0.69815   0.83448   0.67748   1.000
    N224    N    0.37501   0.00978   0.00024   1.000
    N225    N    0.37501   0.50978   0.00000   1.000
    N226    N    0.87501   0.00978   0.00024   1.000
    N227    N    0.87501   0.50978   0.00024   1.000
    N228    N    0.12499   0.49019   0.99980   1.000
    N229    N    0.12500   0.99018   0.99980   1.000
    N230    N    0.62499   0.49019   0.99980   1.000
    N231    N    0.62500   0.99019   0.99980   1.000
loop_
    _geom_bond_atom_site_label_1
    _geom_bond_atom_site_label_2
    _geom_bond_distance
    _geom_bond_site_symmetry_2
    _ccdc_geom_bond_type
    N225   C109      1.39089      .   S
    N225   C85       1.38704  1_554   S
    N227   C111      1.38936      .   S
    N227   C87       1.38953  1_554   S
    N226   C110      1.38938      .   S
    N226   C86       1.38949  1_554   S
    N224   C108      1.38940      .   S
    N224   C84       1.38952  1_554   S
    N224   H73       1.01905  1_545   S
    H49    C145      1.08584      .   S
    H48    C144      1.08573      .   S
    H50    C146      1.08573      .   S
    H51    C147      1.08581      .   S
    H34    C122      1.08646      .   S
    H32    C120      1.08583      .   S
    H33    C121      1.08580      .   S
    H35    C123      1.08557      .   S
    C133   C145      1.40673      .   S
    C133   C140      1.40762  1_565   S
    C133   N229      1.38933  1_554   S
    C135   C147      1.40666      .   S
    C135   C142      1.40758  1_565   S
    C135   N231      1.38946  1_554   S
    C134   C146      1.40644      .   S
    C134   C143      1.40751      .   S
    C134   N230      1.38943  1_554   S
    C132   C144      1.40653      .   S
    C132   C141      1.40755      .   S
    C132   N228      1.38934  1_554   S
    C109   C121      1.40662      .   S
    C109   C117      1.40796      .   S
    C108   C120      1.40670      .   S
    C108   C116      1.40750      .   S
    C110   C122      1.40670      .   S
    C110   C118      1.40763      .   S
    C111   C123      1.40676      .   S
    C111   C119      1.40756      .   S
    C146   C150      1.39082      .   S
    C144   C148      1.39069      .   S
    C147   C151      1.38981      .   S
    C145   C149      1.39038      .   S
    C123   C127      1.39060      .   S
    C121   C125      1.39039      .   S
    C120   C124      1.39032      .   S
    C122   C126      1.39039      .   S
    H29    C116      1.09060  1_565   S
    H30    C119      1.09055      .   S
    H31    C118      1.09055  1_565   S
    H28    C117      1.09053      .   S
    H44    C140      1.09051      .   S
    H45    C141      1.09055      .   S
    H46    C142      1.09049      .   S
    H47    C143      1.09049      .   S
    C143   C139      1.38363      .   S
    C142   C138      1.38367      .   S
    C141   C137      1.38362      .   S
    C140   C136      1.38366      .   S
    C116   C112      1.38305      .   S
    C117   C113      1.38358      .   S
    C119   C115      1.38364      .   S
    C118   C114      1.38359      .   S
    C151   H55       1.09052      .   S
    C151   N215      1.34750      .   S
    C149   H53       1.09013      .   S
    C149   N213      1.34728      .   S
    C150   H54       1.08997      .   S
    C150   N214      1.34727      .   S
    C148   H52       1.09012      .   S
    C148   N212      1.34728      .   S
    C124   H36       1.09005      .   S
    C124   N204      1.34736      .   S
    C126   H38       1.09007      .   S
    C126   N206      1.34728      .   S
    C127   H39       1.09006      .   S
    C127   N207      1.34679      .   S
    C125   H37       1.09005      .   S
    C125   N205      1.34727      .   S
    C112   N204      1.35089      .   S
    C112   H24       1.09010      .   S
    C139   N214      1.35111      .   S
    C139   H43       1.09009      .   S
    C136   N213      1.35115  1_545   S
    C136   H40       1.09013      .   S
    C138   N215      1.35115  1_545   S
    C138   H42       1.08993      .   S
    C137   N212      1.35111      .   S
    C137   H41       1.09011      .   S
    C114   N206      1.35108      .   S
    C114   H26       1.09013      .   S
    C115   N207      1.35118      .   S
    C115   H27       1.09014      .   S
    C113   N205      1.35106      .   S
    C113   H25       1.09007      .   S
    N212   Cd1       2.39056      .   S
    N213   Cd0       2.39064      .   S
    N214   Cd3       2.39063      .   S
    N215   Cd2       2.39067      .   S
    N207   Cd7       2.38934      .   S
    N205   Cd5       2.38899      .   S
    N206   Cd6       2.38904      .   S
    N204   Cd4       2.38896      .   S
    S176   C80       1.63860      .   S
    S176   Cd4       2.79198      .   S
    S177   C81       1.63852      .   S
    S177   Cd5       2.79171      .   S
    S178   C82       1.63852      .   S
    S178   Cd6       2.79175      .   S
    S179   C83       1.63852      .   S
    S179   Cd7       2.79171      .   S
    S191   C155      1.63862      .   S
    S191   Cd0       2.78874  1_655   S
    S191   H75       1.11861      .   S
    S190   C154      1.63849      .   S
    S190   Cd1       2.78875  1_655   S
    S190   H74       1.11870      .   S
    S189   C153      1.63854      .   S
    S189   Cd2       2.78845      .   S
    S188   C152      1.63849      .   S
    S188   Cd3       2.78850      .   S
    C81    N193      1.18596      .   S
    C82    N194      1.18599      .   S
    C83    N195      1.18598      .   S
    C80    N192      1.18584      .   S
    C153   N217      1.18596      .   S
    C155   N219      1.18598      .   S
    C154   N218      1.18593      .   S
    C152   N216      1.18595      .   S
    N219   Cd7       2.34171      .   S
    N218   Cd6       2.34177      .   S
    N217   Cd5       2.34173      .   S
    N216   Cd4       2.34172      .   S
    N192   Cd1       2.34214      .   S
    N193   Cd0       2.34243      .   S
    N194   Cd3       2.34235      .   S
    N195   Cd2       2.34245      .   S
    Cd7    N203      2.34178      .   S
    Cd7    S187      2.79173      .   S
    Cd7    N223      2.38901      .   S
    Cd5    N201      2.34176      .   S
    Cd5    S185      2.79174      .   S
    Cd5    N221      2.38902      .   S
    Cd4    N200      2.34179      .   S
    Cd4    S184      2.79177      .   S
    Cd4    N220      2.38907      .   S
    Cd1    N211      2.34247  1_455   S
    Cd1    S181      2.78849      .   S
    Cd1    N199      2.39068  1_455   S
    Cd0    N210      2.34249  1_465   S
    Cd0    S180      2.78847  1_565   S
    Cd0    N198      2.39064  1_465   S
    Cd2    N208      2.34235  1_565   S
    Cd2    S182      2.78844  1_565   S
    Cd2    N196      2.39051  1_565   S
    Cd3    N209      2.34236      .   S
    Cd3    S183      2.78850      .   S
    Cd3    N197      2.39057      .   S
    Cd6    N202      2.34172      .   S
    Cd6    S186      2.79169      .   S
    Cd6    N222      2.38902      .   S
    N208   C128      1.18599      .   S
    N209   C129      1.18598      .   S
    N210   C130      1.18597      .   S
    N211   C131      1.18595      .   S
    N200   C104      1.18597      .   S
    N201   C105      1.18593      .   S
    N202   C106      1.18598      .   S
    N203   C107      1.18595      .   S
    C106   S182      1.63834      .   S
    C107   S183      1.63849      .   S
    C105   S181      1.63850      .   S
    C104   S180      1.63844      .   S
    C131   S187      1.63855      .   S
    C128   S184      1.63852      .   S
    C129   S185      1.63853      .   S
    C130   S186      1.63853      .   S
    H11    C91       1.09015      .   S
    H10    C90       1.09013      .   S
    H8     C88       1.09007      .   S
    H9     C89       1.09010      .   S
    H56    C160      1.09069      .   S
    H57    C161      1.09017      .   S
    H58    C162      1.09014      .   S
    H59    C163      1.09005      .   S
    N223   C163      1.35107      .   S
    N223   C175      1.34733      .   S
    N221   C161      1.35107      .   S
    N221   C173      1.34726      .   S
    N220   C160      1.35109      .   S
    N220   C172      1.34719      .   S
    N222   C162      1.35107      .   S
    N222   C174      1.34719      .   S
    N197   C88       1.35106      .   S
    N197   C101      1.34727      .   S
    N198   C91       1.35118  1_545   S
    N198   C102      1.34695      .   S
    N199   C90       1.35111      .   S
    N199   C103      1.34694      .   S
    N196   C89       1.35119  1_545   S
    N196   C100      1.34726      .   S
    C163   C167      1.38363      .   S
    C161   C165      1.38359      .   S
    C162   C166      1.38356      .   S
    C160   C164      1.38358      .   S
    C88    C92       1.38374      .   S
    C91    C95       1.38360      .   S
    C90    C94       1.38364      .   S
    C89    C93       1.38362      .   S
    H69    C173      1.09008      .   S
    H68    C172      1.09007      .   S
    H71    C175      1.09006      .   S
    H70    C174      1.09008      .   S
    H22    C102      1.08969      .   S
    H23    C103      1.08950      .   S
    H21    C101      1.09011      .   S
    H20    C100      1.09007      .   S
    C173   C169      1.39040      .   S
    C172   C168      1.38376      .   S
    C175   C171      1.39035      .   S
    C174   C170      1.39045      .   S
    C102   C98       1.39124      .   S
    C103   C99       1.39130      .   S
    C100   C96       1.39047      .   S
    C101   C97       1.39034      .   S
    C164   H61       1.09051      .   S
    C164   C156      1.40753      .   S
    C167   H62       1.09054  1_565   S
    C167   C159      1.40759      .   S
    C165   H60       1.09058  1_565   S
    C165   C157      1.40752      .   S
    C166   H63       1.09053      .   S
    C166   C158      1.40756      .   S
    C92    H12       1.08633      .   S
    C92    C85       1.40739      .   S
    C95    H15       1.09054      .   S
    C95    C86       1.40758  1_565   S
    C94    H14       1.09051      .   S
    C94    C87       1.40749      .   S
    C93    H13       1.09050      .   S
    C93    C84       1.40760  1_565   S
    C168   C156      1.40524      .   S
    C168   H64       1.09366      .   S
    C169   C157      1.40670      .   S
    C169   H65       1.08581      .   S
    C171   C159      1.40668      .   S
    C171   H67       1.08588      .   S
    C170   C158      1.40672      .   S
    C170   H66       1.08575      .   S
    C97    C85       1.40652      .   S
    C97    H17       1.08584      .   S
    C96    C84       1.40669      .   S
    C96    H16       1.08583      .   S
    C98    C86       1.40672      .   S
    C98    H18       1.08584      .   S
    C99    C87       1.40666      .   S
    C99    H19       1.08575      .   S
    C157   N229      1.38946      .   S
    C156   N228      1.38948      .   S
    C159   N231      1.38941      .   S
    C158   N230      1.38942      .   S
    N231   H78       1.01940  1_565   S
    N230   H79       1.01934      .   S
    N229   H76       1.01938  1_565   S
    N228   H77       1.01972      .   S
