# CIF file generated by openbabel 2.4.90, see http://openbabel.sf.net
data_I
_chemical_name_common ''
_cell_length_a 17.005
_cell_length_b 18.735
_cell_length_c 19.368
_cell_angle_alpha 90.005
_cell_angle_beta 90.013
_cell_angle_gamma 101.51
_space_group_name_H-M_alt 'P 1'
_space_group_name_Hall 'P 1'
loop_
    _symmetry_equiv_pos_as_xyz
    x,y,z
loop_
    _atom_site_label
    _atom_site_type_symbol
    _atom_site_fract_x
    _atom_site_fract_y
    _atom_site_fract_z
    _atom_site_occupancy
    Cd0     Cd   0.65251   0.99308   0.05730   1.000
    Cd1     Cd   0.34732   0.50697   0.55731   1.000
    Cd2     Cd   0.84729   0.50694   0.55731   1.000
    Cd3     Cd   0.34732   0.00694   0.94280   1.000
    Cd4     Cd   0.84736   0.00692   0.94280   1.000
    Cd5     Cd   0.15253   0.49305   0.44279   1.000
    Cd6     Cd   0.65256   0.49307   0.44279   1.000
    Cd7     Cd   0.15255   0.99309   0.05731   1.000
