# CIF file generated by openbabel 2.4.90, see http://openbabel.sf.net
data_I
_chemical_name_common ''
_cell_length_a 17.005
_cell_length_b 18.735
_cell_length_c 19.368
_cell_angle_alpha 90.005
_cell_angle_beta 90.013
_cell_angle_gamma 101.51
_space_group_name_H-M_alt 'P 1'
_space_group_name_Hall 'P 1'
loop_
    _symmetry_equiv_pos_as_xyz
    x,y,z
loop_
    _atom_site_label
    _atom_site_type_symbol
    _atom_site_fract_x
    _atom_site_fract_y
    _atom_site_fract_z
    _atom_site_occupancy
    N0      N    0.79076   0.24280   0.28722   1.000
    N1      N    0.96760   0.77328   0.33902   1.000
    N2      N    0.46761   0.77329   0.33900   1.000
    N3      N    0.46756   0.27328   0.16078   1.000
    N4      N    0.96755   0.27326   0.16077   1.000
    N5      N    0.29077   0.24284   0.28726   1.000
    N6      N    0.03226   0.22671   0.66107   1.000
    N7      N    0.53227   0.22669   0.66109   1.000
    N8      N    0.29076   0.74281   0.21286   1.000
    N9      N    0.79079   0.74283   0.21286   1.000
    N10     N    0.20911   0.25721   0.78720   1.000
    N11     N    0.70910   0.25720   0.78719   1.000
    N12     N    0.53232   0.72675   0.83900   1.000
    N13     N    0.03233   0.72675   0.83899   1.000
    N14     N    0.20911   0.75719   0.71286   1.000
    N15     N    0.70912   0.75721   0.71286   1.000
    Zr16    Zr   0.15253   0.49305   0.44279   1.000
    O17     O    0.11609   0.41424   0.50654   1.000
    O18     O    0.17445   0.56619   0.52377   1.000
    O19     O    0.16092   0.57089   0.51876   1.000
    O20     O    0.19543   0.56721   0.37618   1.000
    O21     O    0.10136   0.42885   0.36108   1.000
    O22     O    0.20365   0.42513   0.40477   1.000
    Zr23    Zr   0.34732   0.50697   0.55731   1.000
    O24     O    0.29620   0.57489   0.59534   1.000
    O25     O    0.30443   0.43281   0.62391   1.000
    O26     O    0.39852   0.57116   0.63893   1.000
    O27     O    0.38377   0.58577   0.49355   1.000
    O28     O    0.33894   0.42914   0.48134   1.000
    O29     O    0.32540   0.43382   0.47634   1.000
    Zr30    Zr   0.84729   0.50694   0.55731   1.000
    O31     O    0.80440   0.43279   0.62391   1.000
    O32     O    0.89850   0.57114   0.63893   1.000
    O33     O    0.79619   0.57489   0.59534   1.000
    O34     O    0.88374   0.58576   0.49356   1.000
    O35     O    0.82537   0.43379   0.47633   1.000
    O36     O    0.83891   0.42911   0.48132   1.000
    Zr37    Zr   0.15255   0.99309   0.05731   1.000
    O38     O    0.16094   0.07091   0.98132   1.000
    O39     O    0.20365   0.92513   0.09534   1.000
    O40     O    0.11613   0.91428   0.99355   1.000
    O41     O    0.19545   0.06724   0.12392   1.000
    O42     O    0.10138   0.92889   0.13894   1.000
    O43     O    0.17447   0.06622   0.97631   1.000
    Zr44    Zr   0.65251   0.99308   0.05730   1.000
    O45     O    0.70365   0.92514   0.09533   1.000
    O46     O    0.67445   0.06622   0.97624   1.000
    O47     O    0.66091   0.07090   0.98131   1.000
    O48     O    0.60135   0.92888   0.13893   1.000
    O49     O    0.61609   0.91427   0.99355   1.000
    O50     O    0.69542   0.06722   0.12391   1.000
    Zr51    Zr   0.65256   0.49307   0.44279   1.000
    O52     O    0.61610   0.41424   0.50654   1.000
    O53     O    0.67448   0.56622   0.52377   1.000
    O54     O    0.66094   0.57090   0.51876   1.000
    O55     O    0.69546   0.56723   0.37618   1.000
    O56     O    0.60137   0.42887   0.36109   1.000
    O57     O    0.70366   0.42512   0.40476   1.000
    Zr58    Zr   0.34732   0.00694   0.94280   1.000
    O59     O    0.39851   0.07112   0.86117   1.000
    O60     O    0.32539   0.93379   0.02377   1.000
    O61     O    0.33894   0.92911   0.01878   1.000
    O62     O    0.38376   0.08575   0.00647   1.000
    O63     O    0.30443   0.93278   0.87619   1.000
    O64     O    0.29621   0.07488   0.90474   1.000
    Zr65    Zr   0.84736   0.00692   0.94280   1.000
    O66     O    0.89853   0.07112   0.86117   1.000
    O67     O    0.80446   0.93278   0.87619   1.000
    O68     O    0.82543   0.93379   0.02377   1.000
    O69     O    0.83897   0.92911   0.01878   1.000
    O70     O    0.79623   0.07487   0.90467   1.000
    O71     O    0.88378   0.08573   0.00647   1.000
loop_
    _geom_bond_atom_site_label_1
    _geom_bond_atom_site_label_2
    _geom_bond_distance
    _geom_bond_site_symmetry_2
    _ccdc_geom_bond_type
    Zr16   O17       1.92990      .   S
    N6     O17       4.61929      .   S
    Zr16   O18       2.06687      .   S
    N14    O18       5.07144      .   S
    Zr16   O19       2.05627      .   S
    N14    O19       5.08348      .   S
    Zr16   O20       1.92960      .   S
    N8     O20       4.61865      .   S
    Zr16   O21       2.07114      .   S
    N4     O21       5.10630  1_655   S
    Zr16   O22       1.83282      .   S
    N5     O22       4.58883      .   S
    Zr23   O24       1.83288      .   S
    N14    O24       4.58877      .   S
    Zr23   O25       1.92939      .   S
    N10    O25       4.61827      .   S
    Zr23   O26       2.06992      .   S
    N12    O26       5.10259      .   S
    Zr23   O27       1.92988      .   S
    N2     O27       4.61947      .   S
    Zr23   O28       2.05618      .   S
    N5     O28       5.08329      .   S
    Zr23   O29       2.06680      .   S
    N5     O29       5.07125      .   S
    Zr30   O31       1.92931      .   S
    N11    O31       4.61798      .   S
    Zr30   O32       2.06998      .   S
    N13    O32       5.10276  1_455   S
    Zr30   O33       1.83294      .   S
    N15    O33       4.58911      .   S
    Zr30   O34       1.92992      .   S
    N1     O34       4.61957      .   S
    Zr30   O35       2.06703      .   S
    N0     O35       5.07164      .   S
    Zr30   O36       2.05648      .   S
    N0     O36       5.08360      .   S
    Zr37   O38       2.05668  1_564   S
    N10    O38       5.08439      .   S
    Zr37   O39       1.83302      .   S
    N8     O39       4.58934      .   S
    Zr37   O40       1.92954  1_554   S
    N13    O40       4.61888      .   S
    Zr37   O41       1.92916  1_565   S
    N5     O41       4.61786      .   S
    Zr37   O42       2.07044      .   S
    N1     O42       5.10383  1_655   S
    Zr37   O43       2.06740  1_564   S
    N10    O43       5.07227      .   S
    Zr44   O45       1.83317      .   S
    N9     O45       4.58937      .   S
    Zr44   O46       2.06844  1_564   S
    N11    O46       5.07124      .   S
    Zr44   O47       2.05661  1_564   S
    N11    O47       5.08441      .   S
    Zr44   O48       2.07033      .   S
    N2     O48       5.10350      .   S
    Zr44   O49       1.92935  1_554   S
    N12    O49       4.61851      .   S
    Zr44   O50       1.92897  1_565   S
    N0     O50       4.61751      .   S
    Zr51   O52       1.93009      .   S
    N7     O52       4.61978      .   S
    Zr51   O53       2.06695      .   S
    N15    O53       5.07151      .   S
    Zr51   O54       2.05630      .   S
    N15    O54       5.08358      .   S
    Zr51   O55       1.92966      .   S
    N9     O55       4.61874      .   S
    Zr51   O56       2.07107      .   S
    N3     O56       5.10616      .   S
    Zr51   O57       1.83306      .   S
    N0     O57       4.58935      .   S
    Zr58   O59       2.07039      .   S
    N7     O59       5.10354      .   S
    Zr58   O60       2.06718  1_546   S
    N8     O60       5.07181      .   S
    Zr58   O61       2.05646  1_546   S
    N8     O61       5.08393      .   S
    Zr58   O62       1.92851  1_556   S
    N3     O62       4.61570      .   S
    Zr58   O63       1.92910  1_545   S
    N14    O63       4.61778      .   S
    Zr58   O64       1.83316      .   S
    N10    O64       4.58959      .   S
    Zr65   O66       2.07043      .   S
    N6     O66       5.10383  1_455   S
    Zr65   O67       1.92900  1_545   S
    N15    O67       4.61759      .   S
    Zr65   O68       2.06699  1_546   S
    N9     O68       5.07155      .   S
    Zr65   O69       2.05633  1_546   S
    N9     O69       5.08363      .   S
    Zr65   O70       1.83391      .   S
    N11    O70       4.58922      .   S
    Zr65   O71       1.92835  1_556   S
    N4     O71       4.61542      .   S
