# CIF file generated by openbabel 2.4.90, see http://openbabel.sf.net
data_I
_chemical_name_common ''
_cell_length_a 12.396
_cell_length_b 20.153
_cell_length_c 20.225
_cell_angle_alpha 102.717
_cell_angle_beta 94.698
_cell_angle_gamma 94.474
_space_group_name_H-M_alt 'P 1'
_space_group_name_Hall 'P 1'
loop_
    _symmetry_equiv_pos_as_xyz
    x,y,z
loop_
    _atom_site_label
    _atom_site_type_symbol
    _atom_site_fract_x
    _atom_site_fract_y
    _atom_site_fract_z
    _atom_site_occupancy
    Zn0     Zn   0.61626   0.66407   0.15020   1.000
    Zn1     Zn   0.91674   0.20002   0.92677   1.000
    Zn2     Zn   0.00878   0.34957   0.08580   1.000
    Zn3     Zn   0.30555   0.11405   0.60870   1.000
    Zn4     Zn   0.11612   0.15052   0.66300   1.000
    Zn5     Zn   0.41679   0.92793   0.19818   1.000
    Zn6     Zn   0.50880   0.08533   0.34984   1.000
    Zn7     Zn   0.80551   0.60889   0.11389   1.000
loop_
    _geom_bond_atom_site_label_1
    _geom_bond_atom_site_label_2
    _geom_bond_distance
    _geom_bond_site_symmetry_2
    _ccdc_geom_bond_type
    Zn7    Zn0       2.75845      .   S
    Zn3    Zn4       2.75618      .   S
