# CIF file generated by openbabel 2.4.90, see http://openbabel.sf.net
data_I
_chemical_name_common ''
_cell_length_a 12.396
_cell_length_b 20.153
_cell_length_c 20.225
_cell_angle_alpha 102.717
_cell_angle_beta 94.698
_cell_angle_gamma 94.474
_space_group_name_H-M_alt 'P 1'
_space_group_name_Hall 'P 1'
loop_
    _symmetry_equiv_pos_as_xyz
    x,y,z
loop_
    _atom_site_label
    _atom_site_type_symbol
    _atom_site_fract_x
    _atom_site_fract_y
    _atom_site_fract_z
    _atom_site_occupancy
    Zr0     Zr   0.80551   0.60889   0.11389   1.000
    Zr1     Zr   0.61626   0.66407   0.15020   1.000
    Zr2     Zr   0.91674   0.20002   0.92677   1.000
    Zr3     Zr   0.00878   0.34957   0.08580   1.000
    Zr4     Zr   0.30555   0.11405   0.60870   1.000
    Zr5     Zr   0.11612   0.15052   0.66300   1.000
    Zr6     Zr   0.41679   0.92793   0.19818   1.000
    Zr7     Zr   0.50880   0.08533   0.34984   1.000
    O8      O    0.71088   0.63648   0.13205   1.000
    O9      O    0.21083   0.13228   0.63585   1.000
    N10     N    0.54283   0.06506   0.52423   1.000
    O11     O    0.53063   0.07239   0.46260   1.000
    O12     O    0.45926   0.08281   0.55429   1.000
    N13     N    0.80964   0.90013   0.99530   1.000
    O14     O    0.72656   0.79868   0.05833   1.000
    O15     O    0.84132   0.03270   0.96899   1.000
    O16     O    0.81103   0.77237   0.04021   1.000
    N17     N    0.96328   0.99456   0.28306   1.000
    O18     O    0.76037   0.02237   0.30822   1.000
    O19     O    0.16688   0.96781   0.26000   1.000
    O20     O    0.72993   0.96541   0.24402   1.000
    O21     O    0.19593   0.03483   0.31241   1.000
    N22     N    0.46342   0.28324   0.99392   1.000
    O23     O    0.66696   0.26111   0.96689   1.000
    O24     O    0.22996   0.24485   0.96428   1.000
    O25     O    0.26056   0.30809   0.02251   1.000
    O26     O    0.69602   0.31231   0.03447   1.000
    N27     N    0.04294   0.52415   0.06521   1.000
    O28     O    0.03076   0.46243   0.07265   1.000
    O29     O    0.95934   0.55435   0.08283   1.000
    N30     N    0.14803   0.27220   0.37289   1.000
    O31     O    0.08295   0.30750   0.25230   1.000
    O32     O    0.21542   0.20944   0.47602   1.000
    O33     O    0.12718   0.22445   0.49876   1.000
    N34     N    0.37633   0.74741   0.19594   1.000
    O35     O    0.46108   0.71796   0.17936   1.000
    O36     O    0.39130   0.81132   0.19700   1.000
    N37     N    0.64824   0.37241   0.27171   1.000
    O38     O    0.58317   0.25187   0.30735   1.000
    O39     O    0.71542   0.47567   0.20888   1.000
    O40     O    0.62736   0.49883   0.22400   1.000
    N41     N    0.30974   0.99572   0.89911   1.000
    O42     O    0.22653   0.05857   0.79761   1.000
    O43     O    0.31111   0.04040   0.77165   1.000
    O44     O    0.34145   0.97008   0.03141   1.000
    N45     N    0.46079   0.39295   0.87551   1.000
    O46     O    0.31370   0.29248   0.78472   1.000
    O47     O    0.60785   0.48409   0.97514   1.000
    O48     O    0.52225   0.51028   0.99124   1.000
    O49     O    0.40013   0.27443   0.76108   1.000
    N50     N    0.87617   0.19700   0.74632   1.000
    O51     O    0.96093   0.18015   0.71696   1.000
    O52     O    0.89120   0.19832   0.81019   1.000
    N53     N    0.96100   0.87576   0.39240   1.000
    O54     O    0.02230   0.99151   0.50957   1.000
    O55     O    0.10797   0.97536   0.48370   1.000
    O56     O    0.81389   0.78515   0.29205   1.000
    O57     O    0.90026   0.76121   0.27408   1.000
loop_
    _geom_bond_atom_site_label_1
    _geom_bond_atom_site_label_2
    _geom_bond_distance
    _geom_bond_site_symmetry_2
    _ccdc_geom_bond_type
    Zr0    O8        1.37923      .   S
    Zr1    O8        1.37923      .   S
    Zr4    O9        1.37809      .   S
    Zr5    O9        1.37809      .   S
    N10    O11       1.28537      .   S
    Zr7    O11       2.34820      .   S
    N10    O12       1.27900      .   S
    Zr4    O12       2.33740      .   S
    N13    O14       2.81077  1_556   S
    Zr1    O14       3.83896      .   S
    N13    O15       2.84097  1_565   S
    Zr2    O15       3.72565      .   S
    N13    O16       2.91370  1_556   S
    Zr0    O16       3.90153      .   S
    N17    O18       2.68401  1_565   S
    Zr7    O18       3.55254      .   S
    N17    O19       2.67803  1_655   S
    Zr6    O19       3.51946      .   S
    N17    O20       2.91417      .   S
    Zr6    O20       3.89133      .   S
    N17    O21       2.91040  1_665   S
    Zr7    O21       3.90051      .   S
    N22    O23       2.67542      .   S
    Zr2    O23       3.51102      .   S
    N22    O24       2.91471      .   S
    Zr2    O24       3.89046  1_655   S
    N22    O25       2.68624  1_556   S
    Zr3    O25       3.55931      .   S
    N22    O26       2.90976  1_556   S
    Zr3    O26       3.90069  1_455   S
    N27    O28       1.28423      .   S
    Zr3    O28       2.34521      .   S
    N27    O29       1.27873  1_455   S
    Zr0    O29       2.33617      .   S
    N30    O31       2.76351      .   S
    Zr3    O31       3.71147      .   S
    N30    O32       2.77283      .   S
    Zr4    O32       3.77627      .   S
    N30    O33       2.93608      .   S
    Zr5    O33       3.93634      .   S
    N34    O35       1.27903      .   S
    Zr1    O35       2.33605      .   S
    N34    O36       1.28223      .   S
    Zr6    O36       2.34115      .   S
    N37    O38       2.76262      .   S
    Zr7    O38       3.71080      .   S
    N37    O39       2.77578      .   S
    Zr0    O39       3.78176      .   S
    N37    O40       2.93825      .   S
    Zr1    O40       3.94492      .   S
    N41    O42       2.80781  1_565   S
    Zr5    O42       3.83742      .   S
    N41    O43       2.91259  1_565   S
    Zr4    O43       3.89895      .   S
    N41    O44       2.83719  1_556   S
    Zr6    O44       3.72012      .   S
    N45    O46       2.83457      .   S
    Zr5    O46       3.88102      .   S
    N45    O47       2.82899      .   S
    Zr0    O47       3.87416  1_554   S
    N45    O48       2.93941      .   S
    Zr1    O48       3.96679  1_554   S
    N45    O49       2.93735      .   S
    Zr4    O49       3.96870      .   S
    N50    O51       1.28101      .   S
    Zr5    O51       2.34190  1_455   S
    N50    O52       1.28398      .   S
    Zr2    O52       2.34548      .   S
    N53    O54       2.93752  1_655   S
    Zr5    O54       3.96235  1_545   S
    N53    O55       2.82916  1_655   S
    Zr4    O55       3.87409  1_545   S
    N53    O56       2.83227      .   S
    Zr1    O56       3.87569      .   S
    N53    O57       2.93678      .   S
    Zr0    O57       3.96669      .   S
