# CIF file generated by openbabel 2.4.90, see http://openbabel.sf.net
data_I
_chemical_name_common ''
_cell_length_a 12.396
_cell_length_b 20.153
_cell_length_c 20.225
_cell_angle_alpha 102.717
_cell_angle_beta 94.698
_cell_angle_gamma 94.474
_space_group_name_H-M_alt 'P 1'
_space_group_name_Hall 'P 1'
loop_
    _symmetry_equiv_pos_as_xyz
    x,y,z
loop_
    _atom_site_label
    _atom_site_type_symbol
    _atom_site_fract_x
    _atom_site_fract_y
    _atom_site_fract_z
    _atom_site_occupancy
    C0      C    0.80551   0.60889   0.11389   1.000
    C1      C    0.61626   0.66407   0.15020   1.000
    C2      C    0.91674   0.20002   0.92677   1.000
    C3      C    0.00878   0.34957   0.08580   1.000
    C4      C    0.30555   0.11405   0.60870   1.000
    C5      C    0.11612   0.15052   0.66300   1.000
    C6      C    0.41679   0.92793   0.19818   1.000
    C7      C    0.50880   0.08533   0.34984   1.000
    C8      C    0.52149   0.72722   0.28106   1.000
    C9      C    0.43767   0.65008   0.24318   1.000
    C10     C    0.30122   0.83718   0.28138   1.000
    C11     C    0.44299   0.83432   0.30326   1.000
    C12     C    0.31839   0.79733   0.09733   1.000
    C13     C    0.22845   0.81511   0.16260   1.000
    C14     C    0.18862   0.73331   0.22936   1.000
    C15     C    0.24662   0.65326   0.21241   1.000
    C16     C    0.36394   0.62832   0.12507   1.000
    C17     C    0.39578   0.68882   0.07500   1.000
    C18     C    0.50931   0.79440   0.12659   1.000
    C19     C    0.56384   0.80985   0.21351   1.000
    C20     C    0.03867   0.59706   0.18245   1.000
    C21     C    0.05827   0.64824   0.12183   1.000
    C22     C    0.85892   0.46216   0.06520   1.000
    C23     C    0.92483   0.48984   0.14949   1.000
    C24     C    0.96800   0.61096   0.00727   1.000
    C25     C    0.88431   0.53175   0.98300   1.000
    C26     C    0.19890   0.46294   0.10063   1.000
    C27     C    0.12130   0.48995   0.17000   1.000
    C28     C    0.16224   0.61208   0.02911   1.000
    C29     C    0.22239   0.53315   0.01892   1.000
    C30     C    0.96571   0.42572   0.97028   1.000
    C31     C    0.10973   0.42600   0.98589   1.000
    C32     C    0.65141   0.84148   0.06101   1.000
    C33     C    0.62565   0.95698   0.04429   1.000
    C34     C    0.69042   0.05853   0.00096   1.000
    C35     C    0.96039   0.95628   0.92257   1.000
    C36     C    0.99063   0.84151   0.94394   1.000
    C37     C    0.93133   0.74313   0.99294   1.000
    C38     C    0.79910   0.44688   0.21550   1.000
    C39     C    0.44081   0.40662   0.30253   1.000
    C40     C    0.48304   0.50932   0.25646   1.000
    C41     C    0.85250   0.33735   0.23783   1.000
    C42     C    0.81315   0.23617   0.28751   1.000
    C43     C    0.49745   0.29866   0.32976   1.000
    C44     C    0.75125   0.82688   0.33122   1.000
    C45     C    0.76778   0.92861   0.42851   1.000
    C46     C    0.17086   0.92579   0.45235   1.000
    C47     C    0.15373   0.82079   0.35826   1.000
    C48     C    0.03638   0.73376   0.26897   1.000
    C49     C    0.88520   0.01532   0.51881   1.000
    C50     C    0.68595   0.38412   0.10549   1.000
    C51     C    0.48779   0.38542   0.11322   1.000
    C52     C    0.29807   0.34030   0.06595   1.000
    C53     C    0.62899   0.22622   0.92133   1.000
    C54     C    0.43819   0.17779   0.87601   1.000
    C55     C    0.24033   0.17896   0.88410   1.000
    C56     C    0.02104   0.28207   0.72607   1.000
    C57     C    0.93718   0.24388   0.64915   1.000
    C58     C    0.80096   0.28310   0.83539   1.000
    C59     C    0.94268   0.30486   0.83267   1.000
    C60     C    0.81857   0.09841   0.79645   1.000
    C61     C    0.72848   0.16407   0.81373   1.000
    C62     C    0.68832   0.23064   0.73172   1.000
    C63     C    0.74634   0.21325   0.65211   1.000
    C64     C    0.86376   0.12546   0.62780   1.000
    C65     C    0.89589   0.07556   0.68842   1.000
    C66     C    0.00941   0.12750   0.79371   1.000
    C67     C    0.06373   0.21463   0.80886   1.000
    C68     C    0.53837   0.18276   0.59667   1.000
    C69     C    0.55838   0.12207   0.64786   1.000
    C70     C    0.35858   0.06515   0.46219   1.000
    C71     C    0.42433   0.14963   0.48975   1.000
    C72     C    0.46835   0.00715   0.61080   1.000
    C73     C    0.38449   0.98278   0.53180   1.000
    C74     C    0.69853   0.10028   0.46334   1.000
    C75     C    0.62076   0.16999   0.49002   1.000
    C76     C    0.66245   0.02890   0.61214   1.000
    C77     C    0.72251   0.01843   0.53358   1.000
    C78     C    0.46556   0.96975   0.42624   1.000
    C79     C    0.60955   0.98521   0.42658   1.000
    C80     C    0.15115   0.06095   0.83955   1.000
    C81     C    0.12489   0.04461   0.95450   1.000
    C82     C    0.18986   0.00200   0.05649   1.000
    C83     C    0.46109   0.92330   0.95615   1.000
    C84     C    0.49159   0.94418   0.84164   1.000
    C85     C    0.43214   0.99274   0.74300   1.000
    C86     C    0.29914   0.21625   0.44793   1.000
    C87     C    0.94041   0.30340   0.40635   1.000
    C88     C    0.98268   0.25752   0.50904   1.000
    C89     C    0.35262   0.23824   0.33877   1.000
    C90     C    0.31295   0.28738   0.23741   1.000
    C91     C    0.99697   0.33020   0.29871   1.000
    C92     C    0.25100   0.33180   0.82656   1.000
    C93     C    0.26761   0.42929   0.92816   1.000
    C94     C    0.67059   0.45288   0.92551   1.000
    C95     C    0.65329   0.35894   0.82056   1.000
    C96     C    0.53592   0.26950   0.73364   1.000
    C97     C    0.38514   0.51952   0.01493   1.000
    C98     C    0.18563   0.10544   0.38502   1.000
    C99     C    0.98741   0.11265   0.38690   1.000
    C100    C    0.79769   0.06552   0.34144   1.000
    C101    C    0.12903   0.92293   0.22484   1.000
    C102    C    0.93833   0.87762   0.17642   1.000
    C103    C    0.74038   0.88550   0.17788   1.000
    C104    C    0.45020   0.70492   0.24490   1.000
    C105    C    0.37271   0.81093   0.26657   1.000
    C106    C    0.30032   0.78928   0.14739   1.000
    C107    C    0.26112   0.70812   0.21434   1.000
    C108    C    0.37764   0.68291   0.12581   1.000
    C109    C    0.49307   0.78733   0.17715   1.000
    C110    C    0.04827   0.59567   0.12868   1.000
    C111    C    0.93319   0.48882   0.09575   1.000
    C112    C    0.95914   0.55812   0.01329   1.000
    C113    C    0.12896   0.49042   0.11641   1.000
    C114    C    0.15134   0.55921   0.03516   1.000
    C115    C    0.03942   0.45333   0.00000   1.000
    C116    C    0.75640   0.72814   0.06154   1.000
    C117    C    0.78771   0.78660   0.03023   1.000
    C118    C    0.72579   0.84160   0.03582   1.000
    C119    C    0.75826   0.89891   0.00977   1.000
    C120    C    0.69880   0.95725   0.01775   1.000
    C121    C    0.73412   0.01306   0.99357   1.000
    C122    C    0.88760   0.95590   0.94935   1.000
    C123    C    0.91663   0.84129   0.96969   1.000
    C124    C    0.88413   0.78690   0.99665   1.000
    C125    C    0.82912   0.01247   0.95855   1.000
    C126    C    0.86961   0.07336   0.93340   1.000
    C127    C    0.85536   0.89870   0.97549   1.000
    C128    C    0.66856   0.54453   0.20306   1.000
    C129    C    0.64472   0.48448   0.23366   1.000
    C130    C    0.72127   0.43808   0.23507   1.000
    C131    C    0.70001   0.37897   0.26047   1.000
    C132    C    0.59712   0.36763   0.28609   1.000
    C133    C    0.51969   0.41588   0.28416   1.000
    C134    C    0.54268   0.47275   0.25858   1.000
    C135    C    0.77670   0.33007   0.26043   1.000
    C136    C    0.75459   0.27369   0.28685   1.000
    C137    C    0.57580   0.30815   0.31114   1.000
    C138    C    0.65300   0.26217   0.31239   1.000
    C139    C    0.63083   0.19904   0.33881   1.000
    C140    C    0.82047   0.72446   0.23794   1.000
    C141    C    0.88694   0.77579   0.29468   1.000
    C142    C    0.83920   0.82580   0.33771   1.000
    C143    C    0.90280   0.87590   0.38924   1.000
    C144    C    0.85591   0.92767   0.43424   1.000
    C145    C    0.08262   0.92565   0.44722   1.000
    C146    C    0.01890   0.87486   0.39644   1.000
    C147    C    0.06572   0.82245   0.35216   1.000
    C148    C    0.00153   0.77435   0.30289   1.000
    C149    C    0.03469   0.97511   0.49081   1.000
    C150    C    0.10200   0.02880   0.54493   1.000
    C151    C    0.91991   0.97549   0.48386   1.000
    C152    C    0.66883   0.30554   0.01196   1.000
    C153    C    0.78855   0.30491   0.00922   1.000
    C154    C    0.62850   0.35035   0.06687   1.000
    C155    C    0.51852   0.35091   0.07104   1.000
    C156    C    0.32971   0.30620   0.02300   1.000
    C157    C    0.13875   0.26353   0.97877   1.000
    C158    C    0.44322   0.30618   0.02105   1.000
    C159    C    0.48354   0.25976   0.96600   1.000
    C160    C    0.59719   0.26124   0.96257   1.000
    C161    C    0.40789   0.21376   0.91728   1.000
    C162    C    0.25790   0.26157   0.97482   1.000
    C163    C    0.29781   0.21428   0.92161   1.000
    C164    C    0.94983   0.24581   0.70387   1.000
    C165    C    0.87246   0.26805   0.80940   1.000
    C166    C    0.80038   0.14859   0.78818   1.000
    C167    C    0.76086   0.21540   0.70684   1.000
    C168    C    0.87758   0.12642   0.68229   1.000
    C169    C    0.99305   0.17818   0.78643   1.000
    C170    C    0.54817   0.12882   0.59542   1.000
    C171    C    0.43284   0.09571   0.48881   1.000
    C172    C    0.45930   0.01310   0.55811   1.000
    C173    C    0.62859   0.11623   0.49060   1.000
    C174    C    0.65144   0.03486   0.55939   1.000
    C175    C    0.53932   0.00000   0.45375   1.000
    C176    C    0.25652   0.06129   0.72719   1.000
    C177    C    0.28798   0.03005   0.78560   1.000
    C178    C    0.22576   0.03578   0.84012   1.000
    C179    C    0.25823   0.00997   0.89751   1.000
    C180    C    0.19839   0.01820   0.95530   1.000
    C181    C    0.23376   0.99442   0.01135   1.000
    C182    C    0.38799   0.95000   0.95526   1.000
    C183    C    0.41729   0.96984   0.84095   1.000
    C184    C    0.38472   0.99656   0.78644   1.000
    C185    C    0.32914   0.95949   0.01138   1.000
    C186    C    0.36949   0.93487   0.07251   1.000
    C187    C    0.35572   0.97583   0.89791   1.000
    C188    C    0.16856   0.20391   0.54481   1.000
    C189    C    0.14456   0.23454   0.48486   1.000
    C190    C    0.22120   0.23584   0.43880   1.000
    C191    C    0.19989   0.26109   0.37972   1.000
    C192    C    0.09684   0.28671   0.36799   1.000
    C193    C    0.01936   0.28500   0.41590   1.000
    C194    C    0.04239   0.25952   0.47276   1.000
    C195    C    0.27664   0.26081   0.33116   1.000
    C196    C    0.25438   0.28697   0.27470   1.000
    C197    C    0.07542   0.31154   0.30846   1.000
    C198    C    0.15261   0.31251   0.26278   1.000
    C199    C    0.13039   0.33864   0.19950   1.000
    C200    C    0.32026   0.23825   0.72439   1.000
    C201    C    0.38659   0.29520   0.77559   1.000
    C202    C    0.33890   0.33832   0.82549   1.000
    C203    C    0.40251   0.38990   0.87556   1.000
    C204    C    0.35572   0.43494   0.92728   1.000
    C205    C    0.58238   0.44780   0.92536   1.000
    C206    C    0.51859   0.39708   0.87455   1.000
    C207    C    0.56534   0.35280   0.82219   1.000
    C208    C    0.50116   0.30346   0.77416   1.000
    C209    C    0.53456   0.49138   0.97482   1.000
    C210    C    0.60200   0.54541   0.02855   1.000
    C211    C    0.41979   0.48452   0.97512   1.000
    C212    C    0.16873   0.01273   0.30521   1.000
    C213    C    0.28846   0.01014   0.30419   1.000
    C214    C    0.12826   0.06703   0.35087   1.000
    C215    C    0.01822   0.07092   0.35176   1.000
    C216    C    0.82945   0.02387   0.30678   1.000
    C217    C    0.63857   0.97915   0.26337   1.000
    C218    C    0.94301   0.02125   0.30657   1.000
    C219    C    0.98345   0.96686   0.25937   1.000
    C220    C    0.09712   0.96368   0.26049   1.000
    C221    C    0.90791   0.91845   0.21292   1.000
    C222    C    0.75776   0.97525   0.26155   1.000
    C223    C    0.79780   0.92262   0.21360   1.000
    C224    C    0.47541   0.71294   0.17535   1.000
    C225    C    0.35386   0.73832   0.26520   1.000
    C226    C    0.28078   0.71644   0.14539   1.000
    C227    C    0.39576   0.82255   0.19792   1.000
    C228    C    0.94595   0.56023   0.08703   1.000
    C229    C    0.02838   0.45187   0.07440   1.000
    C230    C    0.14333   0.56063   0.10795   1.000
    C231    C    0.05348   0.52312   0.99180   1.000
    C232    C    0.97527   0.17609   0.71220   1.000
    C233    C    0.85349   0.26641   0.73695   1.000
    C234    C    0.78073   0.14630   0.71550   1.000
    C235    C    0.89573   0.19925   0.82134   1.000
    C236    C    0.44584   0.08707   0.56000   1.000
    C237    C    0.52805   0.07412   0.45210   1.000
    C238    C    0.64320   0.10788   0.56063   1.000
    C239    C    0.55363   0.99149   0.52336   1.000
    C240    C    0.81931   0.68031   0.05637   1.000
    C241    C    0.67068   0.73037   0.09251   1.000
    C242    C    0.82926   0.13050   0.95858   1.000
    C243    C    0.93948   0.06962   0.89153   1.000
    C244    C    0.75967   0.54895   0.17823   1.000
    C245    C    0.59669   0.58644   0.20240   1.000
    C246    C    0.70660   0.16987   0.36048   1.000
    C247    C    0.52739   0.17733   0.33614   1.000
    C248    C    0.87351   0.68443   0.19762   1.000
    C249    C    0.71731   0.72500   0.23321   1.000
    C250    C    0.05108   0.06397   0.59049   1.000
    C251    C    0.20431   0.03588   0.54130   1.000
    C252    C    0.10662   0.31632   0.01640   1.000
    C253    C    0.07626   0.21291   0.94249   1.000
    C254    C    0.84847   0.33319   0.06422   1.000
    C255    C    0.82425   0.27792   0.95293   1.000
    C256    C    0.31943   0.05610   0.67968   1.000
    C257    C    0.17054   0.09231   0.72922   1.000
    C258    C    0.32952   0.96095   0.12925   1.000
    C259    C    0.43899   0.89240   0.06943   1.000
    C260    C    0.26008   0.17933   0.54960   1.000
    C261    C    0.09652   0.20289   0.58625   1.000
    C262    C    0.20613   0.36006   0.17052   1.000
    C263    C    0.02695   0.33602   0.17760   1.000
    C264    C    0.37339   0.19777   0.68459   1.000
    C265    C    0.21711   0.23350   0.72485   1.000
    C266    C    0.55118   0.59115   0.06374   1.000
    C267    C    0.70430   0.54157   0.03564   1.000
    C268    C    0.60612   0.01503   0.31693   1.000
    C269    C    0.57637   0.94458   0.21178   1.000
    C270    C    0.34836   0.06488   0.33367   1.000
    C271    C    0.32416   0.95420   0.27570   1.000
    O272    O    0.03390   0.45260   0.03720   1.000
    O273    O    0.00257   0.43952   0.98514   1.000
    O274    O    0.07458   0.43966   0.99294   1.000
    O275    O    0.04645   0.48822   0.99590   1.000
    O276    O    0.71227   0.03580   0.99726   1.000
    O277    O    0.96357   0.58454   0.01028   1.000
    O278    O    0.72869   0.30522   0.01059   1.000
    O279    O    0.81851   0.31905   0.03672   1.000
    O280    O    0.80640   0.29141   0.98107   1.000
    O281    O    0.72853   0.92808   0.01376   1.000
    O282    O    0.74203   0.87026   0.02279   1.000
    O283    O    0.80681   0.89881   0.99263   1.000
    O284    O    0.28145   0.97695   0.01137   1.000
    O285    O    0.21181   0.99821   0.03392   1.000
    O286    O    0.21607   0.00631   0.98333   1.000
    O287    O    0.34932   0.94718   0.04195   1.000
    O288    O    0.35857   0.95474   0.98332   1.000
    O289    O    0.64867   0.32794   0.03941   1.000
    O290    O    0.63301   0.28339   0.98726   1.000
    O291    O    0.95254   0.55917   0.05016   1.000
    O292    O    0.92172   0.54494   0.99815   1.000
    O293    O    0.00631   0.54062   0.00254   1.000
    O294    O    0.40246   0.50202   0.99503   1.000
    O295    O    0.05770   0.33294   0.05110   1.000
    O296    O    0.12268   0.28992   0.99758   1.000
    O297    O    0.66223   0.95711   0.03102   1.000
    O298    O    0.71646   0.98515   0.00566   1.000
    O299    O    0.18686   0.54618   0.02704   1.000
    O300    O    0.38646   0.30619   0.02202   1.000
    O301    O    0.48087   0.32855   0.04604   1.000
    O302    O    0.46338   0.28297   0.99352   1.000
    O303    O    0.31389   0.32325   0.04447   1.000
    O304    O    0.29381   0.28388   0.99891   1.000
    O305    O    0.65315   0.54349   0.03209   1.000
    O306    O    0.57659   0.56828   0.04614   1.000
    O307    O    0.56828   0.51840   0.00168   1.000
    O308    O    0.15679   0.58564   0.03213   1.000
    O309    O    0.75675   0.81410   0.03302   1.000
    O310    O    0.77206   0.75737   0.04588   1.000
    O311    O    0.83592   0.78675   0.01344   1.000
    O312    O    0.14734   0.55992   0.07155   1.000
    O313    O    0.10241   0.54116   0.01348   1.000
    O314    O    0.75491   0.57523   0.07476   1.000
    O315    O    0.68860   0.84154   0.04841   1.000
    O316    O    0.78786   0.70423   0.05896   1.000
    O317    O    0.81241   0.64460   0.08513   1.000
    O318    O    0.71354   0.72926   0.07702   1.000
    O319    O    0.58372   0.62761   0.10697   1.000
    O320    O    0.92863   0.34138   0.07501   1.000
    O321    O    0.89605   0.47549   0.08047   1.000
    O322    O    0.57351   0.35063   0.06896   1.000
    O323    O    0.65722   0.36724   0.08618   1.000
    O324    O    0.40424   0.91363   0.07097   1.000
    O325    O    0.50315   0.36816   0.09213   1.000
    O326    O    0.34951   0.94791   0.10088   1.000
    O327    O    0.01858   0.40072   0.08010   1.000
    O328    O    0.98079   0.47034   0.08507   1.000
    O329    O    0.07867   0.47115   0.09540   1.000
    O330    O    0.38671   0.68586   0.10040   1.000
    O331    O    0.01787   0.34279   0.13170   1.000
    O332    O    0.93957   0.52452   0.09139   1.000
    O333    O    0.87573   0.58456   0.10046   1.000
    O334    O    0.99711   0.57795   0.10785   1.000
    O335    O    0.64347   0.69722   0.12135   1.000
    O336    O    0.92901   0.48933   0.12262   1.000
    O337    O    0.30936   0.79331   0.12236   1.000
    O338    O    0.16393   0.47668   0.10852   1.000
    O339    O    0.13615   0.52553   0.11218   1.000
    O340    O    0.09580   0.57815   0.11832   1.000
    O341    O    0.78259   0.57892   0.14606   1.000
    O342    O    0.83951   0.64666   0.15576   1.000
    O343    O    0.12513   0.49019   0.14320   1.000
    O344    O    0.05327   0.62196   0.12525   1.000
    O345    O    0.37079   0.65562   0.12544   1.000
    O346    O    0.32921   0.69968   0.13560   1.000
    O347    O    0.42652   0.69793   0.15058   1.000
    O348    O    0.50119   0.79087   0.15187   1.000
    O349    O    0.04347   0.59636   0.15556   1.000
    O350    O    0.37316   0.94444   0.16371   1.000
    O351    O    0.29055   0.75286   0.14639   1.000
    O352    O    0.27095   0.71228   0.17986   1.000
    O353    O    0.26439   0.80219   0.15499   1.000
    O354    O    0.34804   0.80592   0.17265   1.000
    O355    O    0.54583   0.68851   0.16278   1.000
    O356    O    0.60647   0.62526   0.17630   1.000
    O357    O    0.66679   0.69454   0.19170   1.000
    O358    O    0.16826   0.34935   0.18501   1.000
    O359    O    0.48424   0.75014   0.17625   1.000
    O360    O    0.46280   0.70893   0.21012   1.000
    O361    O    0.92312   0.89803   0.19467   1.000
    O362    O    0.44442   0.80494   0.18754   1.000
    O363    O    0.52845   0.79859   0.19533   1.000
    O364    O    0.07867   0.33733   0.18855   1.000
    O365    O    0.76909   0.90406   0.19574   1.000
    O366    O    0.71411   0.54674   0.19064   1.000
    O367    O    0.84699   0.70444   0.21778   1.000
    O368    O    0.40628   0.87524   0.19805   1.000
    O369    O    0.38423   0.81674   0.23225   1.000
    O370    O    0.49658   0.93625   0.20498   1.000
    O371    O    0.37048   0.94106   0.23694   1.000
    O372    O    0.14150   0.32557   0.23114   1.000
    O373    O    0.63262   0.56548   0.20273   1.000
    O374    O    0.65664   0.51450   0.21836   1.000
    O375    O    0.60747   0.96186   0.23757   1.000
    O376    O    0.25387   0.68069   0.21337   1.000
    O377    O    0.85286   0.92053   0.21326   1.000
    O378    O    0.94568   0.94265   0.23614   1.000
    O379    O    0.77778   0.94894   0.23758   1.000
    O380    O    0.22487   0.72071   0.22185   1.000
    O381    O    0.30749   0.72322   0.23977   1.000
    O382    O    0.76019   0.44248   0.22529   1.000
    O383    O    0.11308   0.94331   0.24266   1.000
    O384    O    0.76889   0.72473   0.23558   1.000
    O385    O    0.68300   0.46128   0.23436   1.000
    O386    O    0.59370   0.47861   0.24612   1.000
    O387    O    0.71064   0.40852   0.24777   1.000
    O388    O    0.28366   0.28717   0.25605   1.000
    O389    O    0.81460   0.33371   0.24913   1.000
    O390    O    0.85370   0.75012   0.26631   1.000
    O391    O    0.44394   0.67750   0.24404   1.000
    O392    O    0.40203   0.72162   0.25505   1.000
    O393    O    0.48585   0.71607   0.26298   1.000
    O394    O    0.51286   0.49103   0.25752   1.000
    O395    O    0.53118   0.44431   0.27137   1.000
    O396    O    0.04029   0.96527   0.25993   1.000
    O397    O    0.96323   0.99406   0.28297   1.000
    O398    O    0.73835   0.35452   0.26045   1.000
    O399    O    0.76564   0.30188   0.27364   1.000
    O400    O    0.64856   0.37330   0.27328   1.000
    O401    O    0.13293   0.98821   0.28285   1.000
    O402    O    0.69816   0.97720   0.26246   1.000
    O403    O    0.79360   0.99956   0.28417   1.000
    O404    O    0.20349   0.29974   0.26874   1.000
    O405    O    0.11401   0.31203   0.28562   1.000
    O406    O    0.62234   0.99709   0.29015   1.000
    O407    O    0.36329   0.77463   0.26588   1.000
    O408    O    0.33697   0.82405   0.27397   1.000
    O409    O    0.40785   0.82262   0.28491   1.000
    O410    O    0.01895   0.75405   0.28593   1.000
    O411    O    0.26551   0.27389   0.30293   1.000
    O412    O    0.30631   0.98217   0.28995   1.000
    O413    O    0.55840   0.39176   0.28512   1.000
    O414    O    0.48025   0.41125   0.29334   1.000
    O415    O    0.58646   0.33789   0.29861   1.000
    O416    O    0.78387   0.25493   0.28718   1.000
    O417    O    0.70379   0.26793   0.29962   1.000
    O418    O    0.94423   0.77507   0.29878   1.000
    O419    O    0.86307   0.80079   0.31620   1.000
    O420    O    0.03620   0.32087   0.30358   1.000
    O421    O    0.03363   0.79840   0.32752   1.000
    O422    O    0.22859   0.01144   0.30470   1.000
    O423    O    0.31841   0.03751   0.31893   1.000
    O424    O    0.14850   0.03988   0.32804   1.000
    O425    O    0.88623   0.02256   0.30667   1.000
    O426    O    0.98061   0.04609   0.32916   1.000
    O427    O    0.81357   0.04469   0.32411   1.000
    O428    O    0.08613   0.29913   0.33822   1.000
    O429    O    0.61440   0.28516   0.31177   1.000
    O430    O    0.53662   0.30341   0.32045   1.000
    O431    O    0.64191   0.23061   0.32560   1.000
    O432    O    0.55746   0.05018   0.33338   1.000
    O433    O    0.31463   0.24952   0.33496   1.000
    O434    O    0.23827   0.26095   0.35544   1.000
    O435    O    0.79522   0.82634   0.33446   1.000
    O436    O    0.42858   0.07510   0.34175   1.000
    O437    O    0.57911   0.18819   0.33748   1.000
    O438    O    0.51809   0.13133   0.34299   1.000
    O439    O    0.87100   0.85085   0.36347   1.000
    O440    O    0.66871   0.18446   0.34964   1.000
    O441    O    0.51842   0.07973   0.40097   1.000
    O442    O    0.07324   0.06898   0.35131   1.000
    O443    O    0.15695   0.08623   0.36794   1.000
    O444    O    0.00282   0.09178   0.36933   1.000
    O445    O    0.10972   0.82162   0.35521   1.000
    O446    O    0.04231   0.84865   0.37430   1.000
    O447    O    0.14836   0.27390   0.37385   1.000
    O448    O    0.05810   0.28586   0.39194   1.000
    O449    O    0.21055   0.24846   0.40926   1.000
    O450    O    0.96085   0.87538   0.39284   1.000
    O451    O    0.87936   0.90179   0.41174   1.000
    O452    O    0.05076   0.90026   0.42183   1.000
    O453    O    0.97989   0.29420   0.41112   1.000
    O454    O    0.03087   0.27226   0.44433   1.000
    O455    O    0.50244   0.98488   0.44000   1.000
    O456    O    0.57443   0.99260   0.44016   1.000
    O457    O    0.81185   0.92814   0.43138   1.000
    O458    O    0.88791   0.95158   0.45905   1.000
    O459    O    0.26017   0.22605   0.44337   1.000
    O460    O    0.18288   0.23519   0.46183   1.000
    O461    O    0.12674   0.92572   0.44978   1.000
    O462    O    0.05866   0.95038   0.46901   1.000
    O463    O    0.53368   0.03706   0.45292   1.000
    O464    O    0.48045   0.08492   0.47046   1.000
    O465    O    0.57832   0.09518   0.47135   1.000
    O466    O    0.54647   0.99574   0.48856   1.000
    O467    O    0.39571   0.08043   0.47550   1.000
    O468    O    0.66356   0.10825   0.47697   1.000
    O469    O    0.09347   0.24703   0.47881   1.000
    O470    O    0.01253   0.25852   0.49090   1.000
    O471    O    0.97730   0.97530   0.48734   1.000
    O472    O    0.90256   0.99541   0.50133   1.000
    O473    O    0.15656   0.21923   0.51483   1.000
    O474    O    0.42859   0.12267   0.48928   1.000
    O475    O    0.43934   0.09139   0.52441   1.000
    O476    O    0.62468   0.14311   0.49031   1.000
    O477    O    0.63589   0.11205   0.52561   1.000
    O478    O    0.06835   0.00196   0.51787   1.000
    O479    O    0.50647   0.00229   0.54073   1.000
    O480    O    0.60254   0.01317   0.54138   1.000
    O481    O    0.42190   0.99794   0.54495   1.000
    O482    O    0.68698   0.02665   0.54649   1.000
    O483    O    0.15316   0.03234   0.54311   1.000
    O484    O    0.25493   0.07497   0.57500   1.000
    O485    O    0.21432   0.19162   0.54721   1.000
    O486    O    0.13254   0.20340   0.56553   1.000
    O487    O    0.07654   0.04639   0.56771   1.000
    O488    O    0.28281   0.14669   0.57915   1.000
    O489    O    0.45257   0.05009   0.55905   1.000
    O490    O    0.46383   0.01012   0.58445   1.000
    O491    O    0.64732   0.07137   0.56001   1.000
    O492    O    0.65695   0.03188   0.58576   1.000
    O493    O    0.49700   0.10794   0.57771   1.000
    O494    O    0.37570   0.10056   0.58435   1.000
    O495    O    0.59568   0.11835   0.57802   1.000
    O496    O    0.10632   0.17671   0.62462   1.000
    O497    O    0.08360   0.10725   0.62674   1.000
    O498    O    0.54327   0.15579   0.59604   1.000
    O499    O    0.55327   0.12544   0.62164   1.000
    O500    O    0.31249   0.08507   0.64419   1.000
    O501    O    0.33947   0.15591   0.64665   1.000
    O502    O    0.87067   0.12594   0.65504   1.000
    O503    O    0.94350   0.24485   0.67651   1.000
    O504    O    0.75360   0.21432   0.67948   1.000
    O505    O    0.04569   0.16331   0.68760   1.000
    O506    O    0.16661   0.19201   0.69392   1.000
    O507    O    0.14333   0.12141   0.69611   1.000
    O508    O    0.28798   0.05870   0.70343   1.000
    O509    O    0.88674   0.10099   0.68535   1.000
    O510    O    0.92642   0.15125   0.69724   1.000
    O511    O    0.82915   0.13636   0.69889   1.000
    O512    O    0.34683   0.21801   0.70449   1.000
    O513    O    0.96255   0.21095   0.70803   1.000
    O514    O    0.98543   0.26394   0.71497   1.000
    O515    O    0.90166   0.25611   0.72041   1.000
    O516    O    0.77079   0.18085   0.71117   1.000
    O517    O    0.72459   0.22302   0.71928   1.000
    O518    O    0.80718   0.24090   0.72189   1.000
    O519    O    0.98416   0.17713   0.74931   1.000
    O520    O    0.79055   0.14744   0.75184   1.000
    O521    O    0.26869   0.23588   0.72462   1.000
    O522    O    0.35343   0.26673   0.74999   1.000
    O523    O    0.21353   0.07680   0.72820   1.000
    O524    O    0.27225   0.04567   0.75639   1.000
    O525    O    0.51854   0.28648   0.75390   1.000
    O526    O    0.86298   0.26723   0.77317   1.000
    O527    O    0.40843   0.99465   0.76472   1.000
    O528    O    0.44387   0.29933   0.77487   1.000
    O529    O    0.53325   0.32813   0.79817   1.000
    O530    O    0.36275   0.31676   0.80054   1.000
    O531    O    0.33635   0.01331   0.78602   1.000
    O532    O    0.25687   0.03292   0.81286   1.000
    O533    O    0.00123   0.15284   0.79007   1.000
    O534    O    0.02839   0.19641   0.79764   1.000
    O535    O    0.94439   0.18872   0.80388   1.000
    O536    O    0.40100   0.98320   0.81369   1.000
    O537    O    0.80947   0.12350   0.79231   1.000
    O538    O    0.76443   0.15633   0.80095   1.000
    O539    O    0.84806   0.17392   0.80476   1.000
    O540    O    0.88410   0.23365   0.81537   1.000
    O541    O    0.90757   0.28645   0.82103   1.000
    O542    O    0.83671   0.27557   0.82239   1.000
    O543    O    0.60932   0.35587   0.82137   1.000
    O544    O    0.90624   0.19964   0.87405   1.000
    O545    O    0.54197   0.37494   0.84837   1.000
    O546    O    0.29495   0.33506   0.82602   1.000
    O547    O    0.37071   0.36411   0.85053   1.000
    O548    O    0.18846   0.04837   0.83983   1.000
    O549    O    0.24200   0.02287   0.86882   1.000
    O550    O    0.45444   0.95701   0.84129   1.000
    O551    O    0.38650   0.97283   0.86943   1.000
    O552    O    0.46055   0.39349   0.87505   1.000
    O553    O    0.55049   0.42244   0.89995   1.000
    O554    O    0.37912   0.41242   0.90142   1.000
    O555    O    0.42304   0.19577   0.89664   1.000
    O556    O    0.26907   0.19662   0.90285   1.000
    O557    O    0.90454   0.07149   0.91246   1.000
    O558    O    0.30698   0.99290   0.89771   1.000
    O559    O    0.22831   0.01409   0.92640   1.000
    O560    O    0.37186   0.96292   0.92658   1.000
    O561    O    0.35285   0.21402   0.91945   1.000
    O562    O    0.44571   0.23676   0.94164   1.000
    O563    O    0.61309   0.24373   0.94195   1.000
    O564    O    0.27786   0.23793   0.94821   1.000
    O565    O    0.92400   0.95609   0.93596   1.000
    O566    O    0.62649   0.45034   0.92544   1.000
    O567    O    0.55847   0.46959   0.95009   1.000
    O568    O    0.99650   0.20646   0.93463   1.000
    O569    O    0.87050   0.23897   0.93985   1.000
    O570    O    0.87300   0.16526   0.94268   1.000
    O571    O    0.31166   0.43212   0.92772   1.000
    O572    O    0.38775   0.45973   0.95120   1.000
    O573    O    0.84936   0.04291   0.94598   1.000
    O574    O    0.84943   0.10193   0.94599   1.000
    O575    O    0.10750   0.23822   0.96063   1.000
    O576    O    0.95363   0.84140   0.95681   1.000
    O577    O    0.85836   0.98418   0.95395   1.000
    O578    O    0.87148   0.92730   0.96242   1.000
    O579    O    0.16164   0.03141   0.95490   1.000
    O580    O    0.42454   0.93665   0.95571   1.000
    O581    O    0.78162   0.01276   0.97606   1.000
    O582    O    0.54036   0.26050   0.96428   1.000
    O583    O    0.88600   0.86999   0.97259   1.000
    O584    O    0.90038   0.81410   0.98317   1.000
    O585    O    0.47717   0.48795   0.97497   1.000
    O586    O    0.19833   0.26255   0.97679   1.000
    O587    O    0.90773   0.76502   0.99479   1.000
    O588    O    0.71089   0.63648   0.13205   1.000
    O589    O    0.21083   0.13228   0.63585   1.000
loop_
    _geom_bond_atom_site_label_1
    _geom_bond_atom_site_label_2
    _geom_bond_distance
    _geom_bond_site_symmetry_2
    _ccdc_geom_bond_type
    C115   O272      0.76427      .   S
    C229   O272      0.76427      .   S
    C115   O273      0.54526  1_554   S
    C30    O273      0.54526  1_655   S
    C115   O274      0.54563  1_554   S
    C31    O274      0.54563      .   S
    C115   O275      0.72545  1_554   S
    C231   O275      0.72545      .   S
    C34    O276      0.54456  1_554   S
    C121   O276      0.54456      .   S
    C24    O277      0.54820      .   S
    C112   O277      0.54820      .   S
    C153   O278      0.74528      .   S
    C152   O278      0.74528      .   S
    C153   O279      0.63902      .   S
    C254   O279      0.63902      .   S
    C153   O280      0.63937  1_554   S
    C255   O280      0.63937      .   S
    C119   O281      0.71109      .   S
    C120   O281      0.71109      .   S
    C119   O282      0.70776      .   S
    C118   O282      0.70776      .   S
    C119   O283      0.71862  1_554   S
    C127   O283      0.71862      .   S
    C181   O284      0.71127      .   S
    C185   O284      0.71127      .   S
    C181   O285      0.54451      .   S
    C82    O285      0.54451  1_545   S
    C181   O286      0.68877  1_564   S
    C180   O286      0.68877      .   S
    C185   O287      0.74705      .   S
    C186   O287      0.74705      .   S
    C185   O288      0.69261  1_554   S
    C182   O288      0.69261      .   S
    C152   O289      0.71041      .   S
    C154   O289      0.71041      .   S
    C152   O290      0.69318  1_554   S
    C160   O290      0.69318      .   S
    C112   O291      0.75265      .   S
    C228   O291      0.75265      .   S
    C112   O292      0.54878  1_554   S
    C25    O292      0.54878      .   S
    C112   O293      0.72993  1_655   S
    C231   O293      0.72993  1_556   S
    C97    O294      0.54406  1_554   S
    C211   O294      0.54406      .   S
    C252   O295      0.98509      .   S
    C3     O295      0.98509      .   S
    C252   O296      0.63815  1_554   S
    C157   O296      0.63815      .   S
    C120   O297      0.54556      .   S
    C33    O297      0.54556      .   S
    C120   O298      0.68851      .   S
    C121   O298      0.68851  1_546   S
    C29    O299      0.54839      .   S
    C114   O299      0.54839      .   S
    C158   O300      0.70544      .   S
    C156   O300      0.70544      .   S
    C158   O301      0.71043      .   S
    C155   O301      0.71043      .   S
    C158   O302      0.71941  1_554   S
    C159   O302      0.71941      .   S
    C156   O303      0.55129      .   S
    C52    O303      0.55129      .   S
    C156   O304      0.68879  1_554   S
    C162   O304      0.68879      .   S
    C210   O305      0.63736      .   S
    C267   O305      0.63736      .   S
    C210   O306      0.63806      .   S
    C266   O306      0.63806      .   S
    C210   O307      0.75061      .   S
    C209   O307      0.75061  1_556   S
    C28    O308      0.54914      .   S
    C114   O308      0.54914      .   S
    C117   O309      0.69320      .   S
    C118   O309      0.69320      .   S
    C117   O310      0.74782      .   S
    C116   O310      0.74782      .   S
    C117   O311      0.71127      .   S
    C124   O311      0.71127  1_556   S
    C114   O312      0.73887      .   S
    C230   O312      0.73887      .   S
    C114   O313      0.73770      .   S
    C231   O313      0.73770  1_556   S
    C267   O314      1.04680      .   S
    C0     O314      1.04680      .   S
    C118   O315      0.54475      .   S
    C32    O315      0.54475      .   S
    C240   O316      0.63921      .   S
    C116   O316      0.63921      .   S
    C240   O317      1.02297      .   S
    C0     O317      1.02297      .   S
    C116   O318      0.63791      .   S
    C241   O318      0.63791      .   S
    C266   O319      1.03933      .   S
    C1     O319      1.03933      .   S
    C254   O320      0.99252      .   S
    C3     O320      0.99252  1_455   S
    C22    O321      0.54809      .   S
    C111   O321      0.54809      .   S
    C154   O322      0.68679      .   S
    C155   O322      0.68679      .   S
    C154   O323      0.54308      .   S
    C50    O323      0.54308      .   S
    C259   O324      0.62831      .   S
    C186   O324      0.62831      .   S
    C155   O325      0.54540      .   S
    C51    O325      0.54540      .   S
    C186   O326      0.65326      .   S
    C258   O326      0.65326      .   S
    C229   O327      1.06103      .   S
    C3     O327      1.06103      .   S
    C229   O328      0.74370  1_455   S
    C111   O328      0.74370      .   S
    C229   O329      0.75246      .   S
    C113   O329      0.75246      .   S
    C17    O330      0.54962      .   S
    C108   O330      0.54962      .   S
    C3     O331      0.96652      .   S
    C263   O331      0.96652      .   S
    C228   O332      0.74296      .   S
    C111   O332      0.74296      .   S
    C228   O333      1.05760      .   S
    C0     O333      1.05760      .   S
    C228   O334      0.74958      .   S
    C110   O334      0.74958  1_455   S
    C241   O335      1.03395      .   S
    C1     O335      1.03395      .   S
    C111   O336      0.54805      .   S
    C23    O336      0.54805      .   S
    C12    O337      0.54896      .   S
    C106   O337      0.54896      .   S
    C26    O338      0.54834      .   S
    C113   O338      0.54834      .   S
    C230   O339      0.73059      .   S
    C113   O339      0.73059      .   S
    C230   O340      0.73205      .   S
    C110   O340      0.73205      .   S
    C0     O341      1.02245      .   S
    C244   O341      1.02245      .   S
    C0     O342      1.04004      .   S
    C248   O342      1.04004      .   S
    C113   O343      0.54889      .   S
    C27    O343      0.54889      .   S
    C21    O344      0.54855      .   S
    C110   O344      0.54855      .   S
    C16    O345      0.54833      .   S
    C108   O345      0.54833      .   S
    C108   O346      0.73174      .   S
    C226   O346      0.73174      .   S
    C108   O347      0.75144      .   S
    C224   O347      0.75144      .   S
    C18    O348      0.54768      .   S
    C109   O348      0.54768      .   S
    C110   O349      0.54908      .   S
    C20    O349      0.54908      .   S
    C258   O350      0.97859      .   S
    C6     O350      0.97859      .   S
    C226   O351      0.73001      .   S
    C106   O351      0.73001      .   S
    C226   O352      0.73901      .   S
    C107   O352      0.73901      .   S
    C106   O353      0.54908      .   S
    C13    O353      0.54908      .   S
    C106   O354      0.75336      .   S
    C227   O354      0.75336      .   S
    C1     O355      1.05719      .   S
    C224   O355      1.05719      .   S
    C1     O356      1.04059      .   S
    C245   O356      1.04059      .   S
    C1     O357      1.04921      .   S
    C249   O357      1.04921      .   S
    C262   O358      0.62248      .   S
    C199   O358      0.62248      .   S
    C224   O359      0.74504      .   S
    C109   O359      0.74504      .   S
    C224   O360      0.75278      .   S
    C104   O360      0.75278      .   S
    C102   O361      0.54560      .   S
    C221   O361      0.54560      .   S
    C109   O362      0.74509      .   S
    C227   O362      0.74509      .   S
    C109   O363      0.54807      .   S
    C19    O363      0.54807      .   S
    C263   O364      0.65746      .   S
    C199   O364      0.65746      .   S
    C103   O365      0.54378      .   S
    C223   O365      0.54378      .   S
    C244   O366      0.63883      .   S
    C128   O366      0.63883      .   S
    C248   O367      0.63816      .   S
    C140   O367      0.63816      .   S
    C227   O368      1.05908      .   S
    C6     O368      1.05908      .   S
    C227   O369      0.75201      .   S
    C105   O369      0.75201      .   S
    C6     O370      0.98333      .   S
    C269   O370      0.98333      .   S
    C6     O371      1.01010      .   S
    C271   O371      1.01010      .   S
    C199   O372      0.75046      .   S
    C198   O372      0.75046      .   S
    C245   O373      0.63792      .   S
    C128   O373      0.63792      .   S
    C128   O374      0.74813      .   S
    C129   O374      0.74813      .   S
    C269   O375      0.63893      .   S
    C217   O375      0.63893      .   S
    C15    O376      0.54881      .   S
    C107   O376      0.54881      .   S
    C221   O377      0.68753      .   S
    C223   O377      0.68753      .   S
    C221   O378      0.71084      .   S
    C219   O378      0.71084      .   S
    C223   O379      0.71065      .   S
    C222   O379      0.71065      .   S
    C107   O380      0.54896      .   S
    C14    O380      0.54896      .   S
    C107   O381      0.73686      .   S
    C225   O381      0.73686      .   S
    C38    O382      0.54444      .   S
    C130   O382      0.54444      .   S
    C101   O383      0.54483      .   S
    C220   O383      0.54483      .   S
    C249   O384      0.63782      .   S
    C140   O384      0.63782      .   S
    C129   O385      0.69310      .   S
    C130   O385      0.69310      .   S
    C129   O386      0.71066      .   S
    C134   O386      0.71066      .   S
    C130   O387      0.70625      .   S
    C131   O387      0.70625      .   S
    C90    O388      0.54490      .   S
    C196   O388      0.54490      .   S
    C41    O389      0.54583      .   S
    C135   O389      0.54583      .   S
    C140   O390      0.75087      .   S
    C141   O390      0.75087      .   S
    C9     O391      0.54823      .   S
    C104   O391      0.54823      .   S
    C104   O392      0.73003      .   S
    C225   O392      0.73003      .   S
    C104   O393      0.54894      .   S
    C8     O393      0.54894      .   S
    C40    O394      0.54439      .   S
    C134   O394      0.54439      .   S
    C134   O395      0.68853      .   S
    C133   O395      0.68853      .   S
    C219   O396      0.70701  1_655   S
    C220   O396      0.70701      .   S
    C219   O397      0.71900      .   S
    C218   O397      0.71900  1_545   S
    C135   O398      0.71076      .   S
    C131   O398      0.71076      .   S
    C135   O399      0.68817      .   S
    C136   O399      0.68817      .   S
    C131   O400      0.71806      .   S
    C132   O400      0.71806      .   S
    C220   O401      0.69302      .   S
    C212   O401      0.69302  1_545   S
    C222   O402      0.74438      .   S
    C217   O402      0.74438      .   S
    C222   O403      0.69332      .   S
    C216   O403      0.69332  1_545   S
    C198   O404      0.71074      .   S
    C196   O404      0.71074      .   S
    C198   O405      0.69271      .   S
    C197   O405      0.69271      .   S
    C217   O406      0.63836      .   S
    C268   O406      0.63836  1_545   S
    C225   O407      0.72872      .   S
    C105   O407      0.72872      .   S
    C105   O408      0.54812      .   S
    C10    O408      0.54812      .   S
    C105   O409      0.54953      .   S
    C11    O409      0.54953      .   S
    C48    O410      0.54382      .   S
    C148   O410      0.54382      .   S
    C196   O411      0.68812      .   S
    C195   O411      0.68812      .   S
    C271   O412      0.63887      .   S
    C213   O412      0.63887  1_545   S
    C133   O413      0.71142      .   S
    C132   O413      0.71142      .   S
    C133   O414      0.54555      .   S
    C39    O414      0.54555      .   S
    C132   O415      0.70768      .   S
    C137   O415      0.70768      .   S
    C136   O416      0.54487      .   S
    C42    O416      0.54487      .   S
    C136   O417      0.71069      .   S
    C138   O417      0.71069      .   S
    C141   O418      0.70999      .   S
    C148   O418      0.70999  1_455   S
    C141   O419      0.69183      .   S
    C142   O419      0.69183      .   S
    C91    O420      0.54406  1_655   S
    C197   O420      0.54406      .   S
    C148   O421      0.68742      .   S
    C147   O421      0.68742      .   S
    C213   O422      0.74541      .   S
    C212   O422      0.74541      .   S
    C213   O423      0.63910      .   S
    C270   O423      0.63910      .   S
    C212   O424      0.71037      .   S
    C214   O424      0.71037      .   S
    C218   O425      0.70657      .   S
    C216   O425      0.70657      .   S
    C218   O426      0.71035      .   S
    C215   O426      0.71035  1_455   S
    C216   O427      0.54513      .   S
    C100   O427      0.54513      .   S
    C197   O428      0.70782      .   S
    C192   O428      0.70782      .   S
    C137   O429      0.69275      .   S
    C138   O429      0.69275      .   S
    C137   O430      0.54410      .   S
    C43    O430      0.54410      .   S
    C138   O431      0.74975      .   S
    C139   O431      0.74975      .   S
    C268   O432      0.98591      .   S
    C7     O432      0.98591      .   S
    C195   O433      0.54583      .   S
    C89    O433      0.54583      .   S
    C195   O434      0.71084      .   S
    C191   O434      0.71084      .   S
    C44    O435      0.54492      .   S
    C142   O435      0.54492      .   S
    C270   O436      0.99225      .   S
    C7     O436      0.99225      .   S
    C247   O437      0.65752      .   S
    C139   O437      0.65752      .   S
    C247   O438      0.96662      .   S
    C7     O438      0.96662      .   S
    C142   O439      0.70805      .   S
    C143   O439      0.70805      .   S
    C139   O440      0.62295      .   S
    C246   O440      0.62295      .   S
    C7     O441      1.06284      .   S
    C237   O441      1.06284      .   S
    C214   O442      0.68690      .   S
    C215   O442      0.68690      .   S
    C214   O443      0.54316      .   S
    C98    O443      0.54316      .   S
    C215   O444      0.54535      .   S
    C99    O444      0.54535  1_655   S
    C147   O445      0.54584      .   S
    C47    O445      0.54584      .   S
    C147   O446      0.71047      .   S
    C146   O446      0.71047      .   S
    C192   O447      0.71804      .   S
    C191   O447      0.71804      .   S
    C192   O448      0.71141      .   S
    C193   O448      0.71141      .   S
    C191   O449      0.70591      .   S
    C190   O449      0.70591      .   S
    C143   O450      0.71842      .   S
    C146   O450      0.71842  1_455   S
    C143   O451      0.71028      .   S
    C144   O451      0.71028      .   S
    C146   O452      0.70790      .   S
    C145   O452      0.70790      .   S
    C87    O453      0.54538      .   S
    C193   O453      0.54538  1_455   S
    C193   O454      0.68860      .   S
    C194   O454      0.68860      .   S
    C78    O455      0.54717      .   S
    C175   O455      0.54717  1_545   S
    C79    O456      0.54667      .   S
    C175   O456      0.54667  1_545   S
    C45    O457      0.54557      .   S
    C144   O457      0.54557      .   S
    C144   O458      0.68734      .   S
    C151   O458      0.68734      .   S
    C190   O459      0.54444      .   S
    C86    O459      0.54444      .   S
    C190   O460      0.69336      .   S
    C189   O460      0.69336      .   S
    C145   O461      0.54499      .   S
    C46    O461      0.54499      .   S
    C145   O462      0.69190      .   S
    C149   O462      0.69190      .   S
    C237   O463      0.75926      .   S
    C175   O463      0.75926      .   S
    C237   O464      0.74407      .   S
    C171   O464      0.74407      .   S
    C237   O465      0.75248      .   S
    C173   O465      0.75248      .   S
    C175   O466      0.72684  1_545   S
    C239   O466      0.72684      .   S
    C70    O467      0.54792      .   S
    C171   O467      0.54792      .   S
    C74    O468      0.54831      .   S
    C173   O468      0.54831      .   S
    C194   O469      0.71066      .   S
    C189   O469      0.71066      .   S
    C194   O470      0.54432      .   S
    C88    O470      0.54432  1_655   S
    C151   O471      0.70951      .   S
    C149   O471      0.70951  1_455   S
    C151   O472      0.54383      .   S
    C49    O472      0.54383  1_545   S
    C189   O473      0.74817      .   S
    C188   O473      0.74817      .   S
    C171   O474      0.54800      .   S
    C71    O474      0.54800      .   S
    C171   O475      0.74265      .   S
    C236   O475      0.74265      .   S
    C75    O476      0.54891      .   S
    C173   O476      0.54891      .   S
    C173   O477      0.73056      .   S
    C238   O477      0.73056      .   S
    C149   O478      0.75051  1_565   S
    C150   O478      0.75051      .   S
    C239   O479      0.72976  1_565   S
    C172   O479      0.72976      .   S
    C239   O480      0.73733  1_565   S
    C174   O480      0.73733      .   S
    C73    O481      0.54865      .   S
    C172   O481      0.54865  1_545   S
    C77    O482      0.54838      .   S
    C174   O482      0.54838      .   S
    C251   O483      0.63752      .   S
    C150   O483      0.63752      .   S
    C251   O484      1.04647      .   S
    C4     O484      1.04647      .   S
    C188   O485      0.63884      .   S
    C260   O485      0.63884      .   S
    C188   O486      0.63791      .   S
    C261   O486      0.63791      .   S
    C150   O487      0.63787      .   S
    C250   O487      0.63787      .   S
    C260   O488      1.02165      .   S
    C4     O488      1.02165      .   S
    C172   O489      0.75268      .   S
    C236   O489      0.75268      .   S
    C172   O490      0.54805      .   S
    C72    O490      0.54805      .   S
    C174   O491      0.73896      .   S
    C238   O491      0.73896      .   S
    C174   O492      0.54916      .   S
    C76    O492      0.54916      .   S
    C236   O493      0.74988      .   S
    C170   O493      0.74988      .   S
    C236   O494      1.05859      .   S
    C4     O494      1.05859      .   S
    C238   O495      0.73204      .   S
    C170   O495      0.73204      .   S
    C261   O496      1.03467      .   S
    C5     O496      1.03467      .   S
    C250   O497      1.03724      .   S
    C5     O497      1.03724      .   S
    C170   O498      0.54910      .   S
    C68    O498      0.54910      .   S
    C170   O499      0.54855      .   S
    C69    O499      0.54855      .   S
    C4     O500      1.02263      .   S
    C256   O500      1.02263      .   S
    C4     O501      1.04129      .   S
    C264   O501      1.04129      .   S
    C64    O502      0.54851      .   S
    C168   O502      0.54851      .   S
    C57    O503      0.54832      .   S
    C164   O503      0.54832      .   S
    C63    O504      0.54877      .   S
    C167   O504      0.54877      .   S
    C5     O505      1.06105      .   S
    C232   O505      1.06105  1_655   S
    C5     O506      1.05174      .   S
    C265   O506      1.05174      .   S
    C5     O507      1.03592      .   S
    C257   O507      1.03592      .   S
    C256   O508      0.63907      .   S
    C176   O508      0.63907      .   S
    C168   O509      0.54885      .   S
    C65    O509      0.54885      .   S
    C168   O510      0.75146      .   S
    C232   O510      0.75146      .   S
    C168   O511      0.73175      .   S
    C234   O511      0.73175      .   S
    C264   O512      0.63808      .   S
    C200   O512      0.63808      .   S
    C164   O513      0.75275      .   S
    C232   O513      0.75275      .   S
    C164   O514      0.54881      .   S
    C56    O514      0.54881  1_455   S
    C164   O515      0.73006      .   S
    C233   O515      0.73006      .   S
    C167   O516      0.73897      .   S
    C234   O516      0.73897      .   S
    C167   O517      0.54895      .   S
    C62    O517      0.54895      .   S
    C167   O518      0.73687      .   S
    C233   O518      0.73687      .   S
    C232   O519      0.74512      .   S
    C169   O519      0.74512      .   S
    C234   O520      0.73005      .   S
    C166   O520      0.73005      .   S
    C200   O521      0.63784      .   S
    C265   O521      0.63784      .   S
    C200   O522      0.75096      .   S
    C201   O522      0.75096      .   S
    C176   O523      0.63797      .   S
    C257   O523      0.63797      .   S
    C176   O524      0.74738      .   S
    C177   O524      0.74738      .   S
    C96    O525      0.54377      .   S
    C208   O525      0.54377      .   S
    C233   O526      0.72879      .   S
    C165   O526      0.72879      .   S
    C85    O527      0.54433      .   S
    C184   O527      0.54433      .   S
    C208   O528      0.71014      .   S
    C201   O528      0.71014      .   S
    C208   O529      0.68739      .   S
    C207   O529      0.68739      .   S
    C201   O530      0.69192      .   S
    C202   O530      0.69192      .   S
    C177   O531      0.71098      .   S
    C184   O531      0.71098  1_565   S
    C177   O532      0.69304      .   S
    C178   O532      0.69304      .   S
    C169   O533      0.54762  1_655   S
    C66    O533      0.54762      .   S
    C169   O534      0.54794  1_655   S
    C67    O534      0.54794      .   S
    C169   O535      0.74525      .   S
    C235   O535      0.74525      .   S
    C184   O536      0.68755      .   S
    C183   O536      0.68755      .   S
    C166   O537      0.54893      .   S
    C60    O537      0.54893      .   S
    C166   O538      0.54919      .   S
    C61    O538      0.54919      .   S
    C166   O539      0.75328      .   S
    C235   O539      0.75328      .   S
    C165   O540      0.75199      .   S
    C235   O540      0.75199      .   S
    C165   O541      0.54954      .   S
    C59    O541      0.54954      .   S
    C165   O542      0.54816      .   S
    C58    O542      0.54816      .   S
    C95    O543      0.54581      .   S
    C207   O543      0.54581      .   S
    C235   O544      1.06170      .   S
    C2     O544      1.06170      .   S
    C207   O545      0.71043      .   S
    C206   O545      0.71043      .   S
    C202   O546      0.54493      .   S
    C92    O546      0.54493      .   S
    C202   O547      0.70810      .   S
    C203   O547      0.70810      .   S
    C80    O548      0.54470      .   S
    C178   O548      0.54470      .   S
    C178   O549      0.70742      .   S
    C179   O549      0.70742      .   S
    C183   O550      0.54573      .   S
    C84    O550      0.54573      .   S
    C183   O551      0.71086      .   S
    C187   O551      0.71086      .   S
    C206   O552      0.71860      .   S
    C203   O552      0.71860      .   S
    C206   O553      0.70785      .   S
    C205   O553      0.70785      .   S
    C203   O554      0.71034      .   S
    C204   O554      0.71034      .   S
    C54    O555      0.54556      .   S
    C161   O555      0.54556      .   S
    C55    O556      0.54415      .   S
    C163   O556      0.54415      .   S
    C243   O557      0.62751      .   S
    C126   O557      0.62751      .   S
    C179   O558      0.71839  1_545   S
    C187   O558      0.71839      .   S
    C179   O559      0.71061      .   S
    C180   O559      0.71061      .   S
    C187   O560      0.70688      .   S
    C182   O560      0.70688      .   S
    C161   O561      0.68760      .   S
    C163   O561      0.68760      .   S
    C161   O562      0.71074      .   S
    C159   O562      0.71074      .   S
    C53    O563      0.54484      .   S
    C160   O563      0.54484      .   S
    C163   O564      0.71070      .   S
    C162   O564      0.71070      .   S
    C35    O565      0.54510      .   S
    C122   O565      0.54510      .   S
    C205   O566      0.54498      .   S
    C94    O566      0.54498      .   S
    C205   O567      0.69193      .   S
    C209   O567      0.69193      .   S
    C2     O568      0.98223      .   S
    C253   O568      0.98223  1_455   S
    C2     O569      1.00917      .   S
    C255   O569      1.00917      .   S
    C2     O570      0.97807      .   S
    C242   O570      0.97807      .   S
    C204   O571      0.54560      .   S
    C93    O571      0.54560      .   S
    C204   O572      0.68737      .   S
    C211   O572      0.68737      .   S
    C126   O573      0.74787      .   S
    C125   O573      0.74787      .   S
    C126   O574      0.65367      .   S
    C242   O574      0.65367      .   S
    C253   O575      0.63897      .   S
    C157   O575      0.63897      .   S
    C36    O576      0.54573      .   S
    C123   O576      0.54573      .   S
    C122   O577      0.69238      .   S
    C125   O577      0.69238  1_545   S
    C122   O578      0.70692      .   S
    C127   O578      0.70692      .   S
    C81    O579      0.54558      .   S
    C180   O579      0.54558      .   S
    C182   O580      0.54512      .   S
    C83    O580      0.54512      .   S
    C125   O581      0.71126      .   S
    C121   O581      0.71126      .   S
    C160   O582      0.70726      .   S
    C159   O582      0.70726      .   S
    C123   O583      0.71085      .   S
    C127   O583      0.71085      .   S
    C123   O584      0.68758      .   S
    C124   O584      0.68758      .   S
    C209   O585      0.70967      .   S
    C211   O585      0.70967      .   S
    C162   O586      0.74444      .   S
    C157   O586      0.74444      .   S
    C37    O587      0.54425      .   S
    C124   O587      0.54425      .   S
    C0     O588      1.37924      .   S
    C1     O588      1.37924      .   S
    C4     O589      1.37811      .   S
    C5     O589      1.37811      .   S
