# CIF file generated by openbabel 2.4.90, see http://openbabel.sf.net
data_I
_chemical_name_common ''
_cell_length_a 19.824
_cell_length_b 20.617
_cell_length_c 13.36
_cell_angle_alpha 74.154
_cell_angle_beta 79.598
_cell_angle_gamma 61.879
_space_group_name_H-M_alt 'P 1'
_space_group_name_Hall 'P 1'
loop_
    _symmetry_equiv_pos_as_xyz
    x,y,z
loop_
    _atom_site_label
    _atom_site_type_symbol
    _atom_site_fract_x
    _atom_site_fract_y
    _atom_site_fract_z
    _atom_site_occupancy
    C0      C    0.26611   0.29028   0.71877   1.000
    C1      C    0.26611   0.79029   0.71877   1.000
    C2      C    0.76611   0.29028   0.71877   1.000
    C3      C    0.76611   0.79029   0.71877   1.000
    C4      C    0.42403   0.44195   0.87337   1.000
    C5      C    0.42403   0.94196   0.87337   1.000
    C6      C    0.92403   0.44195   0.87337   1.000
    C7      C    0.92402   0.94196   0.87337   1.000
    C8      C    0.23345   0.21022   0.28119   1.000
    C9      C    0.23345   0.71023   0.28119   1.000
    C10     C    0.73345   0.21022   0.28119   1.000
    C11     C    0.73344   0.71023   0.28119   1.000
    C12     C    0.07546   0.05874   0.12639   1.000
    C13     C    0.07546   0.55876   0.12639   1.000
    C14     C    0.57546   0.05874   0.12639   1.000
    C15     C    0.57546   0.55876   0.12639   1.000
    C16     C    0.24960   0.25049   0.30000   1.000
    C17     C    0.24960   0.75050   0.40000   1.000
    C18     C    0.74960   0.25049   0.30000   1.000
    C19     C    0.74960   0.75050   0.30000   1.000
    C20     C    0.34671   0.34576   0.01300   1.000
    C21     C    0.34670   0.84577   0.01300   1.000
    C22     C    0.84670   0.34576   0.01300   1.000
    C23     C    0.84670   0.84577   0.01300   1.000
    C24     C    0.33987   0.06001   0.00000   1.000
    C25     C    0.33987   0.56002   0.00000   1.000
    C26     C    0.83987   0.06001   0.00000   1.000
    C27     C    0.83986   0.56002   0.00000   1.000
    C28     C    0.07515   0.39776   0.67861   1.000
    C29     C    0.07515   0.89777   0.67861   1.000
    C30     C    0.57515   0.39776   0.67861   1.000
    C31     C    0.57514   0.89777   0.67861   1.000
    C32     C    0.06139   0.35752   0.00000   1.000
    C33     C    0.06138   0.85753   0.00000   1.000
    C34     C    0.56138   0.35752   0.00000   1.000
    C35     C    0.56138   0.85753   0.00000   1.000
    C36     C    0.37571   0.38252   0.68610   1.000
    C37     C    0.37571   0.88253   0.68610   1.000
    C38     C    0.87571   0.38252   0.68614   1.000
    C39     C    0.87570   0.88253   0.68610   1.000
    C40     C    0.35561   0.10733   0.68109   1.000
    C41     C    0.35561   0.60734   0.68109   1.000
    C42     C    0.85561   0.10733   0.68109   1.000
    C43     C    0.85560   0.60734   0.68109   1.000
    C44     C    0.15278   0.15493   0.98680   1.000
    C45     C    0.15278   0.65494   0.98680   1.000
    C46     C    0.65277   0.15493   0.98687   1.000
    C47     C    0.65277   0.65494   0.98680   1.000
    C48     C    0.15951   0.44059   0.99050   1.000
    C49     C    0.15951   0.94060   0.99050   1.000
    C50     C    0.65951   0.44059   0.99050   1.000
    C51     C    0.65951   0.94060   0.99050   1.000
    C52     C    0.42444   0.10268   0.32111   1.000
    C53     C    0.42444   0.60269   0.32110   1.000
    C54     C    0.92443   0.10268   0.32111   1.000
    C55     C    0.92443   0.60269   0.32110   1.000
    C56     C    0.43804   0.14334   0.99268   1.000
    C57     C    0.43804   0.64335   0.99268   1.000
    C58     C    0.93804   0.14334   0.99268   1.000
    C59     C    0.93804   0.64335   0.99268   1.000
    C60     C    0.12404   0.11783   0.31381   1.000
    C61     C    0.12404   0.61784   0.31381   1.000
    C62     C    0.62404   0.11783   0.31381   1.000
    C63     C    0.62404   0.61784   0.31381   1.000
    C64     C    0.14392   0.39325   0.31892   1.000
    C65     C    0.14392   0.89326   0.31892   1.000
    C66     C    0.64392   0.39325   0.31892   1.000
    C67     C    0.64391   0.89326   0.31892   1.000
    C68     C    0.08890   0.37750   0.75976   1.000
    C69     C    0.08890   0.87751   0.75976   1.000
    C70     C    0.58890   0.37750   0.75976   1.000
    C71     C    0.58890   0.87751   0.75976   1.000
    C72     C    0.08315   0.35506   0.92676   1.000
    C73     C    0.08314   0.85507   0.92676   1.000
    C74     C    0.58314   0.35506   0.92676   1.000
    C75     C    0.58314   0.85507   0.92676   1.000
    C76     C    0.36037   0.36343   0.76690   1.000
    C77     C    0.36036   0.86344   0.76690   1.000
    C78     C    0.86036   0.36343   0.76690   1.000
    C79     C    0.86036   0.86344   0.76690   1.000
    C80     C    0.34496   0.34437   0.93318   1.000
    C81     C    0.34496   0.84438   0.93318   1.000
    C82     C    0.84496   0.34437   0.93318   1.000
    C83     C    0.84496   0.84438   0.93318   1.000
    C84     C    0.34353   0.11304   0.76170   1.000
    C85     C    0.34353   0.61305   0.76170   1.000
    C86     C    0.84353   0.11304   0.76174   1.000
    C87     C    0.84352   0.61305   0.76174   1.000
    C88     C    0.33471   0.08966   0.92860   1.000
    C89     C    0.33471   0.58967   0.92860   1.000
    C90     C    0.83471   0.08966   0.92860   1.000
    C91     C    0.83471   0.58967   0.92860   1.000
    C92     C    0.25445   0.35743   0.50155   1.000
    C93     C    0.25445   0.85744   0.50155   1.000
    C94     C    0.75445   0.35743   0.50155   1.000
    C95     C    0.75444   0.85744   0.50155   1.000
    C96     C    0.29796   0.37131   0.39861   1.000
    C97     C    0.29796   0.87132   0.39861   1.000
    C98     C    0.79796   0.37131   0.39861   1.000
    C99     C    0.79795   0.87132   0.39861   1.000
    C100    C    0.34922   0.31258   0.34991   1.000
    C101    C    0.34922   0.81259   0.34991   1.000
    C102    C    0.84922   0.31258   0.34991   1.000
    C103    C    0.84921   0.81259   0.34991   1.000
    C104    C    0.28975   0.44356   0.34946   1.000
    C105    C    0.28975   0.94357   0.34946   1.000
    C106    C    0.78975   0.44356   0.34946   1.000
    C107    C    0.78975   0.94357   0.34946   1.000
    C108    C    0.39062   0.32551   0.25718   1.000
    C109    C    0.39062   0.82552   0.25718   1.000
    C110    C    0.89062   0.32551   0.25718   1.000
    C111    C    0.89061   0.82552   0.25718   1.000
    C112    C    0.33196   0.45598   0.25741   1.000
    C113    C    0.33196   0.95599   0.25741   1.000
    C114    C    0.83196   0.45598   0.25741   1.000
    C115    C    0.83195   0.95599   0.25741   1.000
    C116    C    0.38360   0.39732   0.20976   1.000
    C117    C    0.38360   0.89734   0.20976   1.000
    C118    C    0.88360   0.39732   0.20976   1.000
    C119    C    0.88360   0.89734   0.20976   1.000
    C120    C    0.43007   0.41212   0.11045   1.000
    C121    C    0.43007   0.91213   0.11045   1.000
    C122    C    0.93007   0.41212   0.11045   1.000
    C123    C    0.93007   0.91213   0.11045   1.000
    C124    C    0.41065   0.12304   0.23990   1.000
    C125    C    0.41064   0.62305   0.23998   1.000
    C126    C    0.91064   0.12304   0.23990   1.000
    C127    C    0.91064   0.62305   0.23998   1.000
    C128    C    0.41631   0.14570   0.07296   1.000
    C129    C    0.41631   0.64571   0.07296   1.000
    C130    C    0.91631   0.14570   0.07296   1.000
    C131    C    0.91631   0.64571   0.07296   1.000
    C132    C    0.13931   0.13701   0.23305   1.000
    C133    C    0.13930   0.63702   0.23305   1.000
    C134    C    0.63930   0.13701   0.23305   1.000
    C135    C    0.63930   0.63702   0.23305   1.000
    C136    C    0.15457   0.15625   0.06675   1.000
    C137    C    0.15456   0.65626   0.06675   1.000
    C138    C    0.65456   0.15625   0.06675   1.000
    C139    C    0.65456   0.65626   0.06675   1.000
    C140    C    0.15594   0.38755   0.23826   1.000
    C141    C    0.15594   0.88756   0.23826   1.000
    C142    C    0.65593   0.38755   0.23826   1.000
    C143    C    0.65593   0.88756   0.23826   1.000
    C144    C    0.16468   0.41096   0.07137   1.000
    C145    C    0.16468   0.91097   0.07137   1.000
    C146    C    0.66467   0.41095   0.07137   1.000
    C147    C    0.66467   0.91096   0.07137   1.000
    C148    C    0.24544   0.14271   0.49840   1.000
    C149    C    0.24544   0.64272   0.49840   1.000
    C150    C    0.74544   0.14271   0.49840   1.000
    C151    C    0.74543   0.64272   0.49840   1.000
    C152    C    0.20196   0.12877   0.60134   1.000
    C153    C    0.20195   0.62878   0.60134   1.000
    C154    C    0.70195   0.12877   0.60134   1.000
    C155    C    0.70195   0.62878   0.60134   1.000
    C156    C    0.15071   0.18750   0.65005   1.000
    C157    C    0.15071   0.68751   0.65005   1.000
    C158    C    0.65071   0.18750   0.65005   1.000
    C159    C    0.65071   0.68751   0.65005   1.000
    C160    C    0.21017   0.05652   0.65050   1.000
    C161    C    0.21016   0.55653   0.65050   1.000
    C162    C    0.71016   0.05652   0.65050   1.000
    C163    C    0.71016   0.55653   0.65050   1.000
    C164    C    0.10931   0.17458   0.74278   1.000
    C165    C    0.10931   0.67459   0.74278   1.000
    C166    C    0.60931   0.17458   0.74278   1.000
    C167    C    0.60930   0.67459   0.74278   1.000
    C168    C    0.16795   0.04411   0.74255   1.000
    C169    C    0.16795   0.54412   0.74255   1.000
    C170    C    0.66795   0.04411   0.74255   1.000
    C171    C    0.66795   0.54412   0.74255   1.000
    C172    C    0.11629   0.10277   0.79018   1.000
    C173    C    0.11629   0.60278   0.79018   1.000
    C174    C    0.61629   0.10277   0.79018   1.000
    C175    C    0.61629   0.60278   0.79018   1.000
    C176    C    0.06979   0.08807   0.88900   1.000
    C177    C    0.06979   0.58808   0.88900   1.000
    C178    C    0.56978   0.08807   0.88900   1.000
    C179    C    0.56978   0.58808   0.88900   1.000
    C180    C    0.16022   0.33335   0.78943   1.000
    C181    C    0.16022   0.83336   0.78943   1.000
    C182    C    0.66022   0.33335   0.78943   1.000
    C183    C    0.66021   0.83336   0.78943   1.000
    C184    C    0.15638   0.31888   0.89706   1.000
    C185    C    0.15638   0.81889   0.89706   1.000
    C186    C    0.65638   0.31888   0.89706   1.000
    C187    C    0.65638   0.81889   0.89706   1.000
    C188    C    0.03841   0.39262   0.84370   1.000
    C189    C    0.03841   0.89263   0.84370   1.000
    C190    C    0.53840   0.39262   0.84370   1.000
    C191    C    0.53840   0.89263   0.84370   1.000
    C192    C    0.32316   0.32106   0.79684   1.000
    C193    C    0.32316   0.82107   0.79684   1.000
    C194    C    0.82315   0.32106   0.79684   1.000
    C195    C    0.82315   0.82107   0.79684   1.000
    C196    C    0.31344   0.30871   0.90411   1.000
    C197    C    0.31344   0.80872   0.90411   1.000
    C198    C    0.81344   0.30871   0.90411   1.000
    C199    C    0.81344   0.80872   0.90411   1.000
    C200    C    0.37507   0.37992   0.84984   1.000
    C201    C    0.37507   0.87993   0.84984   1.000
    C202    C    0.87506   0.37992   0.84984   1.000
    C203    C    0.87506   0.87993   0.84984   1.000
    C204    C    0.30640   0.17918   0.79018   1.000
    C205    C    0.30639   0.67919   0.79018   1.000
    C206    C    0.80639   0.17918   0.79018   1.000
    C207    C    0.80639   0.67919   0.79018   1.000
    C208    C    0.30076   0.16409   0.89807   1.000
    C209    C    0.30076   0.66410   0.89807   1.000
    C210    C    0.80075   0.16409   0.89807   1.000
    C211    C    0.80075   0.66410   0.89807   1.000
    C212    C    0.36229   0.05494   0.84652   1.000
    C213    C    0.36229   0.55495   0.84652   1.000
    C214    C    0.86228   0.05494   0.84652   1.000
    C215    C    0.86228   0.55495   0.84652   1.000
    C216    C    0.33931   0.16724   0.21038   1.000
    C217    C    0.33931   0.66725   0.21038   1.000
    C218    C    0.83931   0.16724   0.21038   1.000
    C219    C    0.83931   0.66725   0.21038   1.000
    C220    C    0.34309   0.18186   0.10275   1.000
    C221    C    0.34309   0.68187   0.10275   1.000
    C222    C    0.84309   0.18186   0.10275   1.000
    C223    C    0.84308   0.68187   0.10275   1.000
    C224    C    0.46110   0.10803   0.15598   1.000
    C225    C    0.46109   0.60804   0.15598   1.000
    C226    C    0.96109   0.10803   0.15598   1.000
    C227    C    0.96109   0.60804   0.15598   1.000
    C228    C    0.17646   0.17942   0.20314   1.000
    C229    C    0.17646   0.67943   0.20314   1.000
    C230    C    0.67646   0.17942   0.20314   1.000
    C231    C    0.67645   0.67943   0.20314   1.000
    C232    C    0.18610   0.19188   0.09586   1.000
    C233    C    0.18610   0.69189   0.09586   1.000
    C234    C    0.68609   0.19188   0.09586   1.000
    C235    C    0.68609   0.69189   0.09586   1.000
    C236    C    0.12454   0.12061   0.15007   1.000
    C237    C    0.12454   0.62063   0.15007   1.000
    C238    C    0.62453   0.12061   0.15007   1.000
    C239    C    0.62453   0.62062   0.15007   1.000
    C240    C    0.19304   0.32141   0.20983   1.000
    C241    C    0.19304   0.82142   0.20983   1.000
    C242    C    0.69304   0.32141   0.20983   1.000
    C243    C    0.69304   0.82142   0.20983   1.000
    C244    C    0.19863   0.33653   0.10194   1.000
    C245    C    0.19862   0.83653   0.10194   1.000
    C246    C    0.69862   0.33653   0.10194   1.000
    C247    C    0.69862   0.83653   0.10194   1.000
    C248    C    0.13715   0.44567   0.15349   1.000
    C249    C    0.13714   0.94568   0.15349   1.000
    C250    C    0.63714   0.44566   0.15349   1.000
    C251    C    0.63714   0.94568   0.15349   1.000
    C252    C    0.30072   0.31187   0.57487   1.000
    C253    C    0.30072   0.81188   0.57487   1.000
    C254    C    0.80071   0.31187   0.57487   1.000
    C255    C    0.80071   0.81188   0.57487   1.000
    C256    C    0.18365   0.38869   0.50821   1.000
    C257    C    0.18365   0.88870   0.50821   1.000
    C258    C    0.68365   0.38870   0.50821   1.000
    C259    C    0.68365   0.88870   0.50821   1.000
    C260    C    0.98903   0.41678   0.11674   1.000
    C261    C    0.98902   0.91679   0.11674   1.000
    C262    C    0.48902   0.41678   0.11674   1.000
    C263    C    0.48902   0.91679   0.11674   1.000
    C264    C    0.40001   0.41870   0.02778   1.000
    C265    C    0.40000   0.91871   0.02778   1.000
    C266    C    0.90000   0.41870   0.02778   1.000
    C267    C    0.90000   0.91871   0.02778   1.000
    C268    C    0.19914   0.18837   0.42515   1.000
    C269    C    0.19913   0.68838   0.42515   1.000
    C270    C    0.69913   0.18837   0.42515   1.000
    C271    C    0.69913   0.68838   0.42515   1.000
    C272    C    0.31623   0.11142   0.49170   1.000
    C273    C    0.31623   0.61143   0.49170   1.000
    C274    C    0.81623   0.11142   0.49170   1.000
    C275    C    0.81623   0.61143   0.49170   1.000
    C276    C    0.51095   0.08318   0.88331   1.000
    C277    C    0.51095   0.58319   0.88331   1.000
    C278    C    0.00000   0.08318   0.88331   1.000
    C279    C    0.00000   0.58319   0.88331   1.000
    C280    C    0.09971   0.08184   0.97210   1.000
    C281    C    0.09971   0.58185   0.97210   1.000
    C282    C    0.59971   0.08184   0.97210   1.000
    C283    C    0.59970   0.58185   0.97210   1.000
    C284    C    0.35839   0.24157   0.39186   1.000
    C285    C    0.35839   0.74158   0.39186   1.000
    C286    C    0.85839   0.24157   0.39186   1.000
    C287    C    0.85839   0.74158   0.39186   1.000
    C288    C    0.24127   0.50315   0.39213   1.000
    C289    C    0.24127   0.00000   0.39213   1.000
    C290    C    0.74127   0.50315   0.39213   1.000
    C291    C    0.74126   0.00000   0.39213   1.000
    C292    C    0.43910   0.26652   0.21240   1.000
    C293    C    0.43910   0.76653   0.21240   1.000
    C294    C    0.93909   0.26652   0.21240   1.000
    C295    C    0.93909   0.76653   0.21240   1.000
    C296    C    0.32226   0.02725   0.21265   1.000
    C297    C    0.32225   0.52726   0.21265   1.000
    C298    C    0.82225   0.02725   0.21265   1.000
    C299    C    0.82225   0.52726   0.21265   1.000
    C300    C    0.14159   0.25849   0.60813   1.000
    C301    C    0.14159   0.75850   0.60813   1.000
    C302    C    0.64158   0.25849   0.60813   1.000
    C303    C    0.64158   0.75850   0.60813   1.000
    C304    C    0.25867   0.99692   0.60787   1.000
    C305    C    0.25867   0.49693   0.60787   1.000
    C306    C    0.75867   0.99692   0.60787   1.000
    C307    C    0.75866   0.49693   0.60787   1.000
    C308    C    0.06087   0.23354   0.78759   1.000
    C309    C    0.06086   0.73355   0.78759   1.000
    C310    C    0.56086   0.23354   0.78759   1.000
    C311    C    0.56086   0.73355   0.78759   1.000
    C312    C    0.17770   0.47284   0.78735   1.000
    C313    C    0.17770   0.97285   0.78735   1.000
    C314    C    0.67770   0.47284   0.78735   1.000
    C315    C    0.67770   0.97285   0.78735   1.000
    O316    O    0.07227   0.35629   0.96338   1.000
    O317    O    0.07226   0.85630   0.96338   1.000
    O318    O    0.57226   0.35629   0.96338   1.000
    O319    O    0.57226   0.85630   0.96338   1.000
    O320    O    0.83729   0.57484   0.96430   1.000
    O321    O    0.83729   0.07483   0.96430   1.000
    O322    O    0.33729   0.57485   0.96430   1.000
    O323    O    0.33729   0.07484   0.96430   1.000
    O324    O    0.84583   0.84508   0.97309   1.000
    O325    O    0.84583   0.34507   0.97309   1.000
    O326    O    0.34583   0.84508   0.97309   1.000
    O327    O    0.34583   0.34507   0.97309   1.000
    O328    O    0.41504   0.91542   0.06911   1.000
    O329    O    0.41202   0.93034   0.95057   1.000
    O330    O    0.91503   0.91542   0.06911   1.000
    O331    O    0.91201   0.93033   0.95057   1.000
    O332    O    0.91503   0.41541   0.06911   1.000
    O333    O    0.91201   0.43033   0.95057   1.000
    O334    O    0.41504   0.41541   0.06911   1.000
    O335    O    0.41202   0.43033   0.95057   1.000
    O336    O    0.67033   0.67408   0.08130   1.000
    O337    O    0.63955   0.63844   0.10841   1.000
    O338    O    0.65367   0.65560   0.02677   1.000
    O339    O    0.67033   0.17407   0.08130   1.000
    O340    O    0.63955   0.13843   0.10841   1.000
    O341    O    0.65367   0.15559   0.02681   1.000
    O342    O    0.17033   0.67408   0.08130   1.000
    O343    O    0.13955   0.63844   0.10841   1.000
    O344    O    0.15367   0.65560   0.02677   1.000
    O345    O    0.17033   0.17407   0.08130   1.000
    O346    O    0.13955   0.13843   0.10841   1.000
    O347    O    0.15367   0.15559   0.02677   1.000
    O348    O    0.68165   0.87375   0.08666   1.000
    O349    O    0.65091   0.92832   0.11243   1.000
    O350    O    0.66209   0.92578   0.03094   1.000
    O351    O    0.68165   0.37374   0.08666   1.000
    O352    O    0.65091   0.42831   0.11243   1.000
    O353    O    0.66209   0.42577   0.03094   1.000
    O354    O    0.18165   0.87375   0.08666   1.000
    O355    O    0.15091   0.92832   0.11243   1.000
    O356    O    0.16209   0.92578   0.03094   1.000
    O357    O    0.18165   0.37374   0.08666   1.000
    O358    O    0.15091   0.42831   0.11243   1.000
    O359    O    0.16210   0.42577   0.03094   1.000
    O360    O    0.37970   0.16378   0.08786   1.000
    O361    O    0.43871   0.12686   0.11447   1.000
    O362    O    0.42718   0.14452   0.03282   1.000
    O363    O    0.87970   0.66379   0.08786   1.000
    O364    O    0.93870   0.62687   0.11447   1.000
    O365    O    0.92717   0.64453   0.03282   1.000
    O366    O    0.87970   0.16378   0.08786   1.000
    O367    O    0.93870   0.12686   0.11447   1.000
    O368    O    0.92717   0.14452   0.03282   1.000
    O369    O    0.37970   0.66379   0.08786   1.000
    O370    O    0.43870   0.62687   0.11447   1.000
    O371    O    0.42718   0.64453   0.03282   1.000
    O372    O    0.68127   0.68566   0.14950   1.000
    O373    O    0.68127   0.18565   0.14950   1.000
    O374    O    0.18128   0.68566   0.14950   1.000
    O375    O    0.18128   0.18565   0.14950   1.000
    O376    O    0.19584   0.32897   0.15588   1.000
    O377    O    0.19583   0.82898   0.15588   1.000
    O378    O    0.69583   0.32897   0.15588   1.000
    O379    O    0.69583   0.82898   0.15588   1.000
    O380    O    0.84120   0.67456   0.15657   1.000
    O381    O    0.34120   0.17455   0.15657   1.000
    O382    O    0.34120   0.67456   0.15657   1.000
    O383    O    0.84120   0.17455   0.15657   1.000
    O384    O    0.45955   0.41445   0.11360   1.000
    O385    O    0.40684   0.40472   0.16010   1.000
    O386    O    0.95954   0.91446   0.11360   1.000
    O387    O    0.90683   0.90473   0.16010   1.000
    O388    O    0.95955   0.41445   0.11360   1.000
    O389    O    0.90683   0.40472   0.16010   1.000
    O390    O    0.45954   0.91446   0.11360   1.000
    O391    O    0.40684   0.90473   0.16010   1.000
    O392    O    0.10000   0.08968   0.13823   1.000
    O393    O    0.10630   0.00221   0.13994   1.000
    O394    O    0.01828   0.08339   0.14119   1.000
    O395    O    0.08759   0.07029   0.04924   1.000
    O396    O    0.10000   0.58969   0.13823   1.000
    O397    O    0.10630   0.50221   0.13994   1.000
    O398    O    0.01828   0.58340   0.14119   1.000
    O399    O    0.08759   0.57030   0.04924   1.000
    O400    O    0.60000   0.08968   0.13823   1.000
    O401    O    0.60630   0.00221   0.13994   1.000
    O402    O    0.51828   0.08339   0.14119   1.000
    O403    O    0.58758   0.07029   0.04924   1.000
    O404    O    0.60000   0.58969   0.13823   1.000
    O405    O    0.60630   0.50221   0.13994   1.000
    O406    O    0.51828   0.58340   0.14119   1.000
    O407    O    0.58758   0.57030   0.04924   1.000
    O408    O    0.13192   0.12881   0.19156   1.000
    O409    O    0.13192   0.62882   0.19156   1.000
    O410    O    0.63192   0.12881   0.19156   1.000
    O411    O    0.63192   0.62882   0.19156   1.000
    O412    O    0.14654   0.91662   0.19587   1.000
    O413    O    0.64654   0.41661   0.19587   1.000
    O414    O    0.64653   0.91662   0.19587   1.000
    O415    O    0.14654   0.41661   0.19587   1.000
    O416    O    0.93586   0.61554   0.19798   1.000
    O417    O    0.93587   0.11553   0.19794   1.000
    O418    O    0.43587   0.61554   0.19798   1.000
    O419    O    0.43587   0.11553   0.19794   1.000
    O420    O    0.65788   0.65823   0.21810   1.000
    O421    O    0.70495   0.69483   0.24216   1.000
    O422    O    0.65788   0.15822   0.21810   1.000
    O423    O    0.70495   0.19482   0.24216   1.000
    O424    O    0.15788   0.65823   0.21810   1.000
    O425    O    0.20495   0.69483   0.24216   1.000
    O426    O    0.15788   0.15822   0.21810   1.000
    O427    O    0.20496   0.19482   0.24216   1.000
    O428    O    0.88710   0.86143   0.23347   1.000
    O429    O    0.85778   0.92666   0.23359   1.000
    O430    O    0.88711   0.36142   0.23347   1.000
    O431    O    0.85778   0.42665   0.23359   1.000
    O432    O    0.38711   0.86143   0.23347   1.000
    O433    O    0.35778   0.92666   0.23359   1.000
    O434    O    0.38711   0.36142   0.23347   1.000
    O435    O    0.35778   0.42665   0.23359   1.000
    O436    O    0.17449   0.85449   0.22404   1.000
    O437    O    0.21325   0.76583   0.24551   1.000
    O438    O    0.67448   0.85449   0.22404   1.000
    O439    O    0.72132   0.78596   0.25492   1.000
    O440    O    0.17449   0.35448   0.22404   1.000
    O441    O    0.22132   0.28595   0.25492   1.000
    O442    O    0.67449   0.35448   0.22404   1.000
    O443    O    0.72132   0.28595   0.25492   1.000
    O444    O    0.37498   0.14514   0.22514   1.000
    O445    O    0.28638   0.18873   0.24579   1.000
    O446    O    0.37498   0.64515   0.22518   1.000
    O447    O    0.28638   0.68874   0.24579   1.000
    O448    O    0.87498   0.14514   0.22514   1.000
    O449    O    0.78638   0.18873   0.24579   1.000
    O450    O    0.87497   0.64515   0.22518   1.000
    O451    O    0.78638   0.68874   0.24579   1.000
    O452    O    0.91485   0.79603   0.23479   1.000
    O453    O    0.91485   0.29602   0.23479   1.000
    O454    O    0.41486   0.79603   0.23479   1.000
    O455    O    0.41486   0.29602   0.23479   1.000
    O456    O    0.82710   0.49162   0.23503   1.000
    O457    O    0.82710   0.99162   0.23503   1.000
    O458    O    0.32711   0.49162   0.23503   1.000
    O459    O    0.32711   0.99162   0.23503   1.000
    O460    O    0.63167   0.62743   0.27343   1.000
    O461    O    0.13167   0.12742   0.27343   1.000
    O462    O    0.13167   0.62743   0.27343   1.000
    O463    O    0.63167   0.12742   0.27343   1.000
    O464    O    0.14993   0.89041   0.27859   1.000
    O465    O    0.64993   0.39040   0.27859   1.000
    O466    O    0.64992   0.89041   0.27859   1.000
    O467    O    0.14993   0.39040   0.27859   1.000
    O468    O    0.41754   0.11286   0.28051   1.000
    O469    O    0.91754   0.11286   0.28051   1.000
    O470    O    0.91754   0.61287   0.28054   1.000
    O471    O    0.41754   0.61287   0.28054   1.000
    O472    O    0.36992   0.31905   0.30355   1.000
    O473    O    0.36992   0.81906   0.30355   1.000
    O474    O    0.86992   0.31905   0.30355   1.000
    O475    O    0.86991   0.81906   0.30355   1.000
    O476    O    0.81085   0.94978   0.30344   1.000
    O477    O    0.81085   0.44977   0.30344   1.000
    O478    O    0.31086   0.94978   0.30344   1.000
    O479    O    0.31086   0.44977   0.30344   1.000
    O480    O    0.21629   0.19930   0.35317   1.000
    O481    O    0.24153   0.23036   0.29059   1.000
    O482    O    0.24153   0.73037   0.34060   1.000
    O483    O    0.71629   0.19930   0.35317   1.000
    O484    O    0.74152   0.23036   0.29059   1.000
    O485    O    0.71629   0.69931   0.35317   1.000
    O486    O    0.74152   0.73037   0.29059   1.000
    O487    O    0.76551   0.97179   0.37079   1.000
    O488    O    0.79385   0.90745   0.37404   1.000
    O489    O    0.76551   0.47336   0.37079   1.000
    O490    O    0.79385   0.40744   0.37404   1.000
    O491    O    0.26551   0.97179   0.37079   1.000
    O492    O    0.29386   0.90745   0.37404   1.000
    O493    O    0.26551   0.47336   0.37079   1.000
    O494    O    0.29386   0.40744   0.37404   1.000
    O495    O    0.35381   0.27707   0.37088   1.000
    O496    O    0.32359   0.34194   0.37426   1.000
    O497    O    0.85380   0.27707   0.37088   1.000
    O498    O    0.82359   0.34194   0.37426   1.000
    O499    O    0.85380   0.77708   0.37088   1.000
    O500    O    0.82358   0.84196   0.37426   1.000
    O501    O    0.35381   0.77708   0.37088   1.000
    O502    O    0.32359   0.84196   0.37426   1.000
    O503    O    0.27621   0.36437   0.45008   1.000
    O504    O    0.27620   0.86438   0.45008   1.000
    O505    O    0.77620   0.36437   0.45008   1.000
    O506    O    0.77620   0.86438   0.45008   1.000
    O507    O    0.72228   0.66555   0.46177   1.000
    O508    O    0.72228   0.16554   0.46177   1.000
    O509    O    0.22229   0.66555   0.46177   1.000
    O510    O    0.22437   0.71944   0.41257   1.000
    O511    O    0.22229   0.16554   0.46177   1.000
    O512    O    0.28084   0.12706   0.49505   1.000
    O513    O    0.28084   0.62707   0.49505   1.000
    O514    O    0.78083   0.12706   0.49505   1.000
    O515    O    0.78083   0.62707   0.49505   1.000
    O516    O    0.22370   0.63575   0.54987   1.000
    O517    O    0.22370   0.13574   0.54987   1.000
    O518    O    0.72369   0.63575   0.54987   1.000
    O519    O    0.72369   0.13574   0.54987   1.000
    O520    O    0.21905   0.87307   0.50488   1.000
    O521    O    0.27758   0.83466   0.53821   1.000
    O522    O    0.21905   0.37306   0.50488   1.000
    O523    O    0.27759   0.33465   0.53821   1.000
    O524    O    0.71905   0.37306   0.50488   1.000
    O525    O    0.77758   0.33465   0.53821   1.000
    O526    O    0.71905   0.87307   0.50488   1.000
    O527    O    0.77758   0.83466   0.53821   1.000
    O528    O    0.28341   0.80108   0.64682   1.000
    O529    O    0.78341   0.80108   0.64682   1.000
    O530    O    0.78341   0.30107   0.64682   1.000
    O531    O    0.28342   0.30107   0.64682   1.000
    O532    O    0.67633   0.65815   0.62570   1.000
    O533    O    0.70605   0.59266   0.62592   1.000
    O534    O    0.17634   0.15814   0.62570   1.000
    O535    O    0.20606   0.09265   0.62592   1.000
    O536    O    0.17633   0.65815   0.62570   1.000
    O537    O    0.20606   0.59266   0.62592   1.000
    O538    O    0.67633   0.15814   0.62570   1.000
    O539    O    0.70606   0.09265   0.62592   1.000
    O540    O    0.23442   0.52673   0.62918   1.000
    O541    O    0.73441   0.02672   0.62918   1.000
    O542    O    0.73441   0.52673   0.62918   1.000
    O543    O    0.23442   0.02672   0.62918   1.000
    O544    O    0.64614   0.72301   0.62909   1.000
    O545    O    0.64615   0.22300   0.62909   1.000
    O546    O    0.14615   0.72301   0.62909   1.000
    O547    O    0.14615   0.22300   0.62909   1.000
    O548    O    0.63001   0.68105   0.69642   1.000
    O549    O    0.63001   0.18104   0.69642   1.000
    O550    O    0.13001   0.68105   0.69642   1.000
    O551    O    0.13001   0.18104   0.69642   1.000
    O552    O    0.68905   0.55033   0.69653   1.000
    O553    O    0.18906   0.05032   0.69653   1.000
    O554    O    0.18906   0.55033   0.69653   1.000
    O555    O    0.68905   0.05032   0.69653   1.000
    O556    O    0.58202   0.88764   0.71919   1.000
    O557    O    0.58202   0.38763   0.71919   1.000
    O558    O    0.08202   0.88764   0.71919   1.000
    O559    O    0.08203   0.38763   0.71919   1.000
    O560    O    0.34957   0.11019   0.72139   1.000
    O561    O    0.34957   0.61020   0.72139   1.000
    O562    O    0.84957   0.11019   0.72142   1.000
    O563    O    0.84956   0.61020   0.72142   1.000
    O564    O    0.86803   0.87298   0.72650   1.000
    O565    O    0.36804   0.87298   0.72650   1.000
    O566    O    0.36804   0.37297   0.72650   1.000
    O567    O    0.86803   0.37297   0.72652   1.000
    O568    O    0.21316   0.81182   0.75410   1.000
    O569    O    0.28625   0.73474   0.75448   1.000
    O570    O    0.29463   0.80568   0.75780   1.000
    O571    O    0.21317   0.31181   0.75410   1.000
    O572    O    0.28625   0.23473   0.75448   1.000
    O573    O    0.29464   0.30567   0.75780   1.000
    O574    O    0.71316   0.31181   0.75410   1.000
    O575    O    0.78625   0.23473   0.75448   1.000
    O576    O    0.79463   0.30567   0.75780   1.000
    O577    O    0.71316   0.81182   0.75410   1.000
    O578    O    0.78625   0.73474   0.75448   1.000
    O579    O    0.79463   0.80568   0.75780   1.000
    O580    O    0.67282   0.50848   0.76495   1.000
    O581    O    0.64212   0.57345   0.76636   1.000
    O582    O    0.67282   0.00848   0.76495   1.000
    O583    O    0.64212   0.07344   0.76636   1.000
    O584    O    0.17283   0.50848   0.76495   1.000
    O585    O    0.14212   0.57345   0.76636   1.000
    O586    O    0.17283   0.00848   0.76495   1.000
    O587    O    0.14212   0.07344   0.76636   1.000
    O588    O    0.08509   0.20406   0.76519   1.000
    O589    O    0.11280   0.13867   0.76648   1.000
    O590    O    0.08509   0.70407   0.76519   1.000
    O591    O    0.11280   0.63868   0.76648   1.000
    O592    O    0.58508   0.20406   0.76519   1.000
    O593    O    0.61280   0.13867   0.76648   1.000
    O594    O    0.58508   0.70407   0.76519   1.000
    O595    O    0.61280   0.63868   0.76648   1.000
    O596    O    0.62455   0.85544   0.77460   1.000
    O597    O    0.56365   0.88507   0.80173   1.000
    O598    O    0.62456   0.35543   0.77460   1.000
    O599    O    0.56365   0.38506   0.80173   1.000
    O600    O    0.12456   0.85544   0.77460   1.000
    O601    O    0.06365   0.88507   0.80173   1.000
    O602    O    0.12456   0.35543   0.77460   1.000
    O603    O    0.06366   0.38506   0.80173   1.000
    O604    O    0.32496   0.14611   0.77594   1.000
    O605    O    0.35291   0.08399   0.80411   1.000
    O606    O    0.32496   0.64612   0.77594   1.000
    O607    O    0.35291   0.58400   0.80411   1.000
    O608    O    0.82496   0.14611   0.77596   1.000
    O609    O    0.85291   0.08399   0.80413   1.000
    O610    O    0.82496   0.64612   0.77596   1.000
    O611    O    0.85290   0.58400   0.80413   1.000
    O612    O    0.84176   0.34225   0.78187   1.000
    O613    O    0.86771   0.37167   0.80837   1.000
    O614    O    0.84175   0.84226   0.78187   1.000
    O615    O    0.86771   0.87168   0.80837   1.000
    O616    O    0.34176   0.84226   0.78187   1.000
    O617    O    0.36771   0.87168   0.80837   1.000
    O618    O    0.34176   0.34225   0.78187   1.000
    O619    O    0.36772   0.37167   0.80837   1.000
    O620    O    0.65829   0.82612   0.84325   1.000
    O621    O    0.65830   0.32611   0.84325   1.000
    O622    O    0.15830   0.82612   0.84325   1.000
    O623    O    0.15830   0.32611   0.84325   1.000
    O624    O    0.80357   0.67164   0.84413   1.000
    O625    O    0.09304   0.09542   0.83959   1.000
    O626    O    0.09304   0.59543   0.83959   1.000
    O627    O    0.59304   0.09542   0.83959   1.000
    O628    O    0.59303   0.59543   0.83959   1.000
    O629    O    0.30358   0.17163   0.84413   1.000
    O630    O    0.30357   0.67164   0.84413   1.000
    O631    O    0.80357   0.17163   0.84413   1.000
    O632    O    0.81829   0.81490   0.85047   1.000
    O633    O    0.81830   0.31489   0.85047   1.000
    O634    O    0.31830   0.81490   0.85047   1.000
    O635    O    0.31830   0.31489   0.85047   1.000
    O636    O    0.98122   0.41728   0.85853   1.000
    O637    O    0.06078   0.37384   0.88523   1.000
    O638    O    0.48122   0.41728   0.85853   1.000
    O639    O    0.56077   0.37384   0.88523   1.000
    O640    O    0.98122   0.91729   0.85853   1.000
    O641    O    0.06077   0.87385   0.88523   1.000
    O642    O    0.48122   0.91729   0.85853   1.000
    O643    O    0.56077   0.87385   0.88523   1.000
    O644    O    0.39316   0.99845   0.85994   1.000
    O645    O    0.34850   0.07230   0.88756   1.000
    O646    O    0.39316   0.49845   0.85994   1.000
    O647    O    0.34850   0.57231   0.88756   1.000
    O648    O    0.89316   0.99845   0.85994   1.000
    O649    O    0.84850   0.07230   0.88756   1.000
    O650    O    0.89315   0.49845   0.85994   1.000
    O651    O    0.84849   0.57231   0.88756   1.000
    O652    O    0.89954   0.91094   0.86161   1.000
    O653    O    0.86001   0.86215   0.89151   1.000
    O654    O    0.89955   0.41093   0.86161   1.000
    O655    O    0.86001   0.36214   0.89151   1.000
    O656    O    0.39955   0.91094   0.86161   1.000
    O657    O    0.36001   0.86215   0.89151   1.000
    O658    O    0.39955   0.41093   0.86161   1.000
    O659    O    0.36002   0.36215   0.89151   1.000
    O660    O    0.03489   0.58564   0.88616   1.000
    O661    O    0.03489   0.08563   0.88616   1.000
    O662    O    0.54036   0.58564   0.88616   1.000
    O663    O    0.54037   0.08563   0.88616   1.000
    O664    O    0.58474   0.58496   0.93055   1.000
    O665    O    0.58474   0.08495   0.93055   1.000
    O666    O    0.08475   0.58496   0.93055   1.000
    O667    O    0.08475   0.08495   0.93055   1.000
    O668    O    0.61976   0.83698   0.91191   1.000
    O669    O    0.61976   0.33697   0.91191   1.000
    O670    O    0.11976   0.83698   0.91191   1.000
    O671    O    0.11976   0.33697   0.91191   1.000
    O672    O    0.81773   0.12687   0.91334   1.000
    O673    O    0.31774   0.12688   0.91334   1.000
    O674    O    0.81773   0.62689   0.91334   1.000
    O675    O    0.31773   0.62689   0.91334   1.000
    O676    O    0.32920   0.32654   0.91865   1.000
    O677    O    0.32920   0.82655   0.91865   1.000
    O678    O    0.82920   0.32654   0.91865   1.000
    O679    O    0.82920   0.82655   0.91865   1.000
    O680    O    0.22437   0.21943   0.36257   1.000
    O681    O    0.21629   0.69931   0.35317   1.000
    O682    O    0.72436   0.21943   0.36257   1.000
    O683    O    0.72436   0.71944   0.36257   1.000
loop_
    _geom_bond_atom_site_label_1
    _geom_bond_atom_site_label_2
    _geom_bond_distance
    _geom_bond_site_symmetry_2
    _ccdc_geom_bond_type
    C32    O316      0.50005  1_554   S
    C72    O316      0.50005      .   S
    C33    O317      0.50005  1_554   S
    C73    O317      0.50005      .   S
    C34    O318      0.50005  1_554   S
    C74    O318      0.50005      .   S
    C35    O319      0.50005  1_554   S
    C75    O319      0.50005      .   S
    C27    O320      0.48784  1_554   S
    C91    O320      0.48784      .   S
    C26    O321      0.48784  1_554   S
    C90    O321      0.48784      .   S
    C25    O322      0.48784  1_554   S
    C89    O322      0.48784      .   S
    C24    O323      0.48784  1_554   S
    C88    O323      0.48784      .   S
    C23    O324      0.54088  1_554   S
    C83    O324      0.54088      .   S
    C22    O325      0.54087  1_554   S
    C82    O325      0.54087      .   S
    C21    O326      0.54088  1_554   S
    C81    O326      0.54088      .   S
    C20    O327      0.54088  1_554   S
    C80    O327      0.54088      .   S
    C265   O328      0.64677      .   S
    C121   O328      0.64677      .   S
    C265   O329      1.00407  1_554   S
    C5     O329      1.00407      .   S
    C267   O330      0.64676      .   S
    C123   O330      0.64676      .   S
    C267   O331      1.00407  1_554   S
    C7     O331      1.00407      .   S
    C266   O332      0.64676      .   S
    C122   O332      0.64676      .   S
    C266   O333      1.00407  1_554   S
    C6     O333      1.00407      .   S
    C264   O334      0.64676      .   S
    C120   O334      0.64676      .   S
    C264   O335      1.00407  1_554   S
    C4     O335      1.00407      .   S
    C139   O336      0.66298      .   S
    C235   O336      0.66298      .   S
    C139   O337      0.68185      .   S
    C239   O337      0.68185      .   S
    C139   O338      0.54162      .   S
    C47    O338      0.54162  1_556   S
    C138   O339      0.66297      .   S
    C234   O339      0.66297      .   S
    C138   O340      0.68185      .   S
    C238   O340      0.68185      .   S
    C138   O341      0.54116      .   S
    C46    O341      0.54116  1_556   S
    C137   O342      0.66298      .   S
    C233   O342      0.66298      .   S
    C137   O343      0.68185      .   S
    C237   O343      0.68185      .   S
    C137   O344      0.54162      .   S
    C45    O344      0.54162  1_556   S
    C136   O345      0.66299      .   S
    C232   O345      0.66299      .   S
    C136   O346      0.68185      .   S
    C236   O346      0.68185      .   S
    C136   O347      0.54162      .   S
    C44    O347      0.54162  1_556   S
    C147   O348      0.66294      .   S
    C247   O348      0.66294      .   S
    C147   O349      0.68155      .   S
    C251   O349      0.68155      .   S
    C147   O350      0.54121      .   S
    C51    O350      0.54121  1_556   S
    C146   O351      0.66293      .   S
    C246   O351      0.66293      .   S
    C146   O352      0.68155      .   S
    C250   O352      0.68155      .   S
    C146   O353      0.54121      .   S
    C50    O353      0.54121  1_556   S
    C145   O354      0.66294      .   S
    C245   O354      0.66294      .   S
    C145   O355      0.68155      .   S
    C249   O355      0.68155      .   S
    C145   O356      0.54121      .   S
    C49    O356      0.54121  1_556   S
    C144   O357      0.66294      .   S
    C244   O357      0.66294      .   S
    C144   O358      0.68155      .   S
    C248   O358      0.68155      .   S
    C144   O359      0.54121      .   S
    C48    O359      0.54121  1_556   S
    C128   O360      0.66230      .   S
    C220   O360      0.66230      .   S
    C128   O361      0.68130      .   S
    C224   O361      0.68130      .   S
    C128   O362      0.54318      .   S
    C56    O362      0.54318  1_556   S
    C131   O363      0.66230      .   S
    C223   O363      0.66230      .   S
    C131   O364      0.68130      .   S
    C227   O364      0.68130      .   S
    C131   O365      0.54318      .   S
    C59    O365      0.54318  1_556   S
    C130   O366      0.66230      .   S
    C222   O366      0.66230      .   S
    C130   O367      0.68130      .   S
    C226   O367      0.68130      .   S
    C130   O368      0.54318      .   S
    C58    O368      0.54318  1_556   S
    C129   O369      0.66230      .   S
    C221   O369      0.66230      .   S
    C129   O370      0.68130      .   S
    C225   O370      0.68130      .   S
    C129   O371      0.54318      .   S
    C57    O371      0.54318  1_556   S
    C235   O372      0.68976      .   S
    C231   O372      0.68976      .   S
    C234   O373      0.68976      .   S
    C230   O373      0.68976      .   S
    C233   O374      0.68976      .   S
    C229   O374      0.68976      .   S
    C232   O375      0.68976      .   S
    C228   O375      0.68976      .   S
    C244   O376      0.69221      .   S
    C240   O376      0.69221      .   S
    C245   O377      0.69221      .   S
    C241   O377      0.69221      .   S
    C246   O378      0.69221      .   S
    C242   O378      0.69221      .   S
    C247   O379      0.69221      .   S
    C243   O379      0.69221      .   S
    C223   O380      0.69099      .   S
    C219   O380      0.69099      .   S
    C220   O381      0.69099      .   S
    C216   O381      0.69099      .   S
    C221   O382      0.69099      .   S
    C217   O382      0.69099      .   S
    C222   O383      0.69098      .   S
    C218   O383      0.69098      .   S
    C120   O384      0.61798      .   S
    C262   O384      0.61798      .   S
    C120   O385      0.75903      .   S
    C116   O385      0.75903      .   S
    C123   O386      0.61806      .   S
    C261   O386      0.61806      .   S
    C123   O387      0.75903      .   S
    C119   O387      0.75903      .   S
    C122   O388      0.61807      .   S
    C260   O388      0.61807      .   S
    C122   O389      0.75903      .   S
    C118   O389      0.75903      .   S
    C121   O390      0.61798      .   S
    C263   O390      0.61798      .   S
    C121   O391      0.75903      .   S
    C117   O391      0.75903      .   S
    C12    O392      1.02164      .   S
    C236   O392      1.02164      .   S
    C12    O393      1.00901      .   S
    C249   O393      1.00901  1_565   S
    C12    O394      1.00665      .   S
    C226   O394      1.00665  1_655   S
    C12    O395      1.00358      .   S
    C280   O395      1.00358  1_556   S
    C13    O396      1.02164      .   S
    C237   O396      1.02164      .   S
    C13    O397      1.00918      .   S
    C248   O397      1.00918      .   S
    C13    O398      1.00665      .   S
    C227   O398      1.00665  1_655   S
    C13    O399      1.00358      .   S
    C281   O399      1.00358  1_556   S
    C14    O400      1.02163      .   S
    C238   O400      1.02163      .   S
    C14    O401      1.00902      .   S
    C251   O401      1.00902  1_565   S
    C14    O402      1.00658      .   S
    C224   O402      1.00658      .   S
    C14    O403      1.00358      .   S
    C282   O403      1.00358  1_556   S
    C15    O404      1.02164      .   S
    C239   O404      1.02164      .   S
    C15    O405      1.00919      .   S
    C250   O405      1.00919      .   S
    C15    O406      1.00658      .   S
    C225   O406      1.00658      .   S
    C15    O407      1.00358      .   S
    C283   O407      1.00358  1_556   S
    C236   O408      0.67900      .   S
    C132   O408      0.67900      .   S
    C237   O409      0.67900      .   S
    C133   O409      0.67900      .   S
    C238   O410      0.67899      .   S
    C134   O410      0.67899      .   S
    C239   O411      0.67899      .   S
    C135   O411      0.67899      .   S
    C249   O412      0.67961      .   S
    C141   O412      0.67961      .   S
    C250   O413      0.67961      .   S
    C142   O413      0.67961      .   S
    C251   O414      0.67961      .   S
    C143   O414      0.67961      .   S
    C248   O415      0.67961      .   S
    C140   O415      0.67961      .   S
    C227   O416      0.67972      .   S
    C127   O416      0.67972      .   S
    C226   O417      0.67931      .   S
    C126   O417      0.67931      .   S
    C225   O418      0.67972      .   S
    C125   O418      0.67972      .   S
    C224   O419      0.67931      .   S
    C124   O419      0.67931      .   S
    C231   O420      0.66647      .   S
    C135   O420      0.66647      .   S
    C231   O421      1.02841      .   S
    C11    O421      1.02841      .   S
    C230   O422      0.66648      .   S
    C134   O422      0.66648      .   S
    C230   O423      1.02840      .   S
    C10    O423      1.02840      .   S
    C229   O424      0.66647      .   S
    C133   O424      0.66647      .   S
    C229   O425      1.02840      .   S
    C9     O425      1.02840      .   S
    C228   O426      0.66647      .   S
    C132   O426      0.66647      .   S
    C228   O427      1.02840      .   S
    C8     O427      1.02840      .   S
    C119   O428      0.69611      .   S
    C111   O428      0.69611      .   S
    C119   O429      0.69531      .   S
    C115   O429      0.69531      .   S
    C118   O430      0.69611      .   S
    C110   O430      0.69611      .   S
    C118   O431      0.69531      .   S
    C114   O431      0.69531      .   S
    C117   O432      0.69611      .   S
    C109   O432      0.69611      .   S
    C117   O433      0.69531      .   S
    C113   O433      0.69531      .   S
    C116   O434      0.69611      .   S
    C108   O434      0.69611      .   S
    C116   O435      0.69531      .   S
    C112   O435      0.69531      .   S
    C241   O436      0.66729      .   S
    C141   O436      0.66729      .   S
    C241   O437      1.01943      .   S
    C9     O437      1.01943      .   S
    C243   O438      0.66730      .   S
    C143   O438      0.66730      .   S
    C243   O439      0.84065      .   S
    C19    O439      0.84065      .   S
    C240   O440      0.66729      .   S
    C140   O440      0.66729      .   S
    C240   O441      0.84065      .   S
    C16    O441      0.84065      .   S
    C242   O442      0.66730      .   S
    C142   O442      0.66730      .   S
    C242   O443      0.84065      .   S
    C18    O443      0.84065      .   S
    C216   O444      0.66633      .   S
    C124   O444      0.66633      .   S
    C216   O445      1.00899      .   S
    C8     O445      1.00899      .   S
    C217   O446      0.66649      .   S
    C125   O446      0.66649      .   S
    C217   O447      1.00899      .   S
    C9     O447      1.00899      .   S
    C218   O448      0.66633      .   S
    C126   O448      0.66633      .   S
    C218   O449      1.00899      .   S
    C10    O449      1.00899      .   S
    C219   O450      0.66649      .   S
    C127   O450      0.66649      .   S
    C219   O451      1.00899      .   S
    C11    O451      1.00899      .   S
    C295   O452      0.67979      .   S
    C111   O452      0.67979      .   S
    C294   O453      0.67979      .   S
    C110   O453      0.67979      .   S
    C293   O454      0.67979      .   S
    C109   O454      0.67979      .   S
    C292   O455      0.67979      .   S
    C108   O455      0.67979      .   S
    C299   O456      0.67992      .   S
    C114   O456      0.67992      .   S
    C298   O457      0.67975  1_545   S
    C115   O457      0.67975      .   S
    C297   O458      0.67992      .   S
    C112   O458      0.67992      .   S
    C296   O459      0.67975  1_545   S
    C113   O459      0.67975      .   S
    C135   O460      0.54175      .   S
    C63    O460      0.54175      .   S
    C132   O461      0.54175      .   S
    C60    O461      0.54175      .   S
    C133   O462      0.54175      .   S
    C61    O462      0.54175      .   S
    C134   O463      0.54175      .   S
    C62    O463      0.54175      .   S
    C141   O464      0.54358      .   S
    C65    O464      0.54358      .   S
    C142   O465      0.54357      .   S
    C66    O465      0.54357      .   S
    C143   O466      0.54357      .   S
    C67    O466      0.54357      .   S
    C140   O467      0.54358      .   S
    C64    O467      0.54358      .   S
    C124   O468      0.54275      .   S
    C52    O468      0.54275      .   S
    C126   O469      0.54275      .   S
    C54    O469      0.54275      .   S
    C127   O470      0.54219      .   S
    C55    O470      0.54219      .   S
    C125   O471      0.54219      .   S
    C53    O471      0.54219      .   S
    C108   O472      0.69608      .   S
    C100   O472      0.69608      .   S
    C109   O473      0.69608      .   S
    C101   O473      0.69608      .   S
    C110   O474      0.69608      .   S
    C102   O474      0.69608      .   S
    C111   O475      0.69608      .   S
    C103   O475      0.69608      .   S
    C115   O476      0.69578      .   S
    C107   O476      0.69578      .   S
    C114   O477      0.69578      .   S
    C106   O477      0.69578      .   S
    C113   O478      0.69577      .   S
    C105   O478      0.69577      .   S
    C112   O479      0.69578      .   S
    C104   O479      0.69578      .   S
    C8     O480      0.96282      .   S
    C268   O480      0.96282      .   S
    C8     O481      0.55867      .   S
    C16    O481      0.55867      .   S
    C9     O482      1.05652      .   S
    C17    O482      1.05652      .   S
    C10    O483      0.96282      .   S
    C270   O483      0.96282      .   S
    C10    O484      0.55866      .   S
    C18    O484      0.55866      .   S
    C11    O485      0.96283      .   S
    C271   O485      0.96283      .   S
    C11    O486      0.55866      .   S
    C19    O486      0.55866      .   S
    C107   O487      0.65430      .   S
    C291   O487      0.65430  1_545   S
    C107   O488      0.69867      .   S
    C99    O488      0.69867      .   S
    C106   O489      0.67628      .   S
    C290   O489      0.67628      .   S
    C106   O490      0.69867      .   S
    C98    O490      0.69867      .   S
    C105   O491      0.65430      .   S
    C289   O491      0.65430  1_545   S
    C105   O492      0.69867      .   S
    C97    O492      0.69867      .   S
    C104   O493      0.67628      .   S
    C288   O493      0.67628      .   S
    C104   O494      0.69867      .   S
    C96    O494      0.69867      .   S
    C100   O495      0.67606      .   S
    C284   O495      0.67606      .   S
    C100   O496      0.69888      .   S
    C96    O496      0.69888      .   S
    C102   O497      0.67606      .   S
    C286   O497      0.67606      .   S
    C102   O498      0.69888      .   S
    C98    O498      0.69888      .   S
    C103   O499      0.67606      .   S
    C287   O499      0.67606      .   S
    C103   O500      0.69888      .   S
    C99    O500      0.69888      .   S
    C101   O501      0.67606      .   S
    C285   O501      0.67606      .   S
    C101   O502      0.69888      .   S
    C97    O502      0.69888      .   S
    C96    O503      0.75940      .   S
    C92    O503      0.75940      .   S
    C97    O504      0.75940      .   S
    C93    O504      0.75940      .   S
    C98    O505      0.75940      .   S
    C94    O505      0.75940      .   S
    C99    O506      0.75940      .   S
    C95    O506      0.75940      .   S
    C271   O507      0.65062      .   S
    C151   O507      0.65062      .   S
    C270   O508      0.65062      .   S
    C150   O508      0.65062      .   S
    C269   O509      0.65062      .   S
    C149   O509      0.65062      .   S
    C269   O510      0.94942      .   S
    C17    O510      0.94942      .   S
    C268   O511      0.65062      .   S
    C148   O511      0.65062      .   S
    C272   O512      0.61775      .   S
    C148   O512      0.61775      .   S
    C273   O513      0.61775      .   S
    C149   O513      0.61775      .   S
    C274   O514      0.61775      .   S
    C150   O514      0.61775      .   S
    C275   O515      0.61775      .   S
    C151   O515      0.61775      .   S
    C149   O516      0.75939      .   S
    C153   O516      0.75939      .   S
    C148   O517      0.75939      .   S
    C152   O517      0.75939      .   S
    C151   O518      0.75939      .   S
    C155   O518      0.75939      .   S
    C150   O519      0.75939      .   S
    C154   O519      0.75939      .   S
    C93    O520      0.61776      .   S
    C257   O520      0.61776      .   S
    C93    O521      0.65057      .   S
    C253   O521      0.65057      .   S
    C92    O522      0.61777      .   S
    C256   O522      0.61777      .   S
    C92    O523      0.65057      .   S
    C252   O523      0.65057      .   S
    C94    O524      0.61777      .   S
    C258   O524      0.61777      .   S
    C94    O525      0.65057      .   S
    C254   O525      0.65057      .   S
    C95    O526      0.61777      .   S
    C259   O526      0.61777      .   S
    C95    O527      0.65056      .   S
    C255   O527      0.65056      .   S
    C253   O528      0.96295      .   S
    C1     O528      0.96295      .   S
    C255   O529      0.96295      .   S
    C3     O529      0.96295      .   S
    C254   O530      0.96295      .   S
    C2     O530      0.96295      .   S
    C252   O531      0.96295      .   S
    C0     O531      0.96295      .   S
    C155   O532      0.69884      .   S
    C159   O532      0.69884      .   S
    C155   O533      0.69866      .   S
    C163   O533      0.69866      .   S
    C152   O534      0.69884      .   S
    C156   O534      0.69884      .   S
    C152   O535      0.69866      .   S
    C160   O535      0.69866      .   S
    C153   O536      0.69884      .   S
    C157   O536      0.69884      .   S
    C153   O537      0.69866      .   S
    C161   O537      0.69866      .   S
    C154   O538      0.69884      .   S
    C158   O538      0.69884      .   S
    C154   O539      0.69866      .   S
    C162   O539      0.69866      .   S
    C305   O540      0.67629      .   S
    C161   O540      0.67629      .   S
    C306   O541      0.67629  1_565   S
    C162   O541      0.67629      .   S
    C307   O542      0.67629      .   S
    C163   O542      0.67629      .   S
    C304   O543      0.67629  1_565   S
    C160   O543      0.67629      .   S
    C303   O544      0.67601      .   S
    C159   O544      0.67601      .   S
    C302   O545      0.67600      .   S
    C158   O545      0.67600      .   S
    C301   O546      0.67600      .   S
    C157   O546      0.67600      .   S
    C300   O547      0.67600      .   S
    C156   O547      0.67600      .   S
    C159   O548      0.69609      .   S
    C167   O548      0.69609      .   S
    C158   O549      0.69609      .   S
    C166   O549      0.69609      .   S
    C157   O550      0.69609      .   S
    C165   O550      0.69609      .   S
    C156   O551      0.69609      .   S
    C164   O551      0.69609      .   S
    C163   O552      0.69580      .   S
    C171   O552      0.69580      .   S
    C160   O553      0.69580      .   S
    C168   O553      0.69580      .   S
    C161   O554      0.69580      .   S
    C169   O554      0.69580      .   S
    C162   O555      0.69580      .   S
    C170   O555      0.69580      .   S
    C31    O556      0.54228      .   S
    C71    O556      0.54228      .   S
    C30    O557      0.54228      .   S
    C70    O557      0.54228      .   S
    C29    O558      0.54228      .   S
    C69    O558      0.54228      .   S
    C28    O559      0.54228      .   S
    C68    O559      0.54228      .   S
    C40    O560      0.54328      .   S
    C84    O560      0.54328      .   S
    C41    O561      0.54328      .   S
    C85    O561      0.54328      .   S
    C42    O562      0.54354      .   S
    C86    O562      0.54354      .   S
    C43    O563      0.54354      .   S
    C87    O563      0.54354      .   S
    C39    O564      0.54199      .   S
    C79    O564      0.54199      .   S
    C37    O565      0.54198      .   S
    C77    O565      0.54198      .   S
    C36    O566      0.54199      .   S
    C76    O566      0.54199      .   S
    C38    O567      0.54176      .   S
    C78    O567      0.54176      .   S
    C1     O568      1.00888      .   S
    C181   O568      1.00888      .   S
    C1     O569      1.01883      .   S
    C205   O569      1.01883      .   S
    C1     O570      1.02882      .   S
    C193   O570      1.02882      .   S
    C0     O571      1.00887      .   S
    C180   O571      1.00887      .   S
    C0     O572      1.01883      .   S
    C204   O572      1.01883      .   S
    C0     O573      1.02882      .   S
    C192   O573      1.02882      .   S
    C2     O574      1.00888      .   S
    C182   O574      1.00888      .   S
    C2     O575      1.01883      .   S
    C206   O575      1.01883      .   S
    C2     O576      1.02881      .   S
    C194   O576      1.02881      .   S
    C3     O577      1.00887      .   S
    C183   O577      1.00887      .   S
    C3     O578      1.01883      .   S
    C207   O578      1.01883      .   S
    C3     O579      1.02882      .   S
    C195   O579      1.02882      .   S
    C171   O580      0.67988      .   S
    C314   O580      0.67988      .   S
    C171   O581      0.69531      .   S
    C175   O581      0.69531      .   S
    C170   O582      0.67971      .   S
    C315   O582      0.67971  1_565   S
    C170   O583      0.69531      .   S
    C174   O583      0.69531      .   S
    C169   O584      0.67989      .   S
    C312   O584      0.67989      .   S
    C169   O585      0.69530      .   S
    C173   O585      0.69530      .   S
    C168   O586      0.67972      .   S
    C313   O586      0.67972  1_565   S
    C168   O587      0.69530      .   S
    C172   O587      0.69530      .   S
    C164   O588      0.67969      .   S
    C308   O588      0.67969      .   S
    C164   O589      0.69609      .   S
    C172   O589      0.69609      .   S
    C165   O590      0.67969      .   S
    C309   O590      0.67969      .   S
    C165   O591      0.69610      .   S
    C173   O591      0.69610      .   S
    C166   O592      0.67969      .   S
    C310   O592      0.67969      .   S
    C166   O593      0.69609      .   S
    C174   O593      0.69609      .   S
    C167   O594      0.67969      .   S
    C311   O594      0.67969      .   S
    C167   O595      0.69610      .   S
    C175   O595      0.69610      .   S
    C71    O596      0.66648      .   S
    C183   O596      0.66648      .   S
    C71    O597      0.67973      .   S
    C191   O597      0.67973      .   S
    C70    O598      0.66648      .   S
    C182   O598      0.66648      .   S
    C70    O599      0.67973      .   S
    C190   O599      0.67973      .   S
    C69    O600      0.66647      .   S
    C181   O600      0.66647      .   S
    C69    O601      0.67973      .   S
    C189   O601      0.67973      .   S
    C68    O602      0.66648      .   S
    C180   O602      0.66648      .   S
    C68    O603      0.67973      .   S
    C188   O603      0.67973      .   S
    C84    O604      0.66740      .   S
    C204   O604      0.66740      .   S
    C84    O605      0.67974      .   S
    C212   O605      0.67974      .   S
    C85    O606      0.66740      .   S
    C205   O606      0.66740      .   S
    C85    O607      0.67974      .   S
    C213   O607      0.67974      .   S
    C86    O608      0.66727      .   S
    C206   O608      0.66727      .   S
    C86    O609      0.67957      .   S
    C214   O609      0.67957      .   S
    C87    O610      0.66727      .   S
    C207   O610      0.66727      .   S
    C87    O611      0.67957      .   S
    C215   O611      0.67957      .   S
    C78    O612      0.66649      .   S
    C194   O612      0.66649      .   S
    C78    O613      0.67900      .   S
    C202   O613      0.67900      .   S
    C79    O614      0.66649      .   S
    C195   O614      0.66649      .   S
    C79    O615      0.67900      .   S
    C203   O615      0.67900      .   S
    C77    O616      0.66649      .   S
    C193   O616      0.66649      .   S
    C77    O617      0.67899      .   S
    C201   O617      0.67899      .   S
    C76    O618      0.66649      .   S
    C192   O618      0.66649      .   S
    C76    O619      0.67900      .   S
    C200   O619      0.67900      .   S
    C183   O620      0.69103      .   S
    C187   O620      0.69103      .   S
    C182   O621      0.69103      .   S
    C186   O621      0.69103      .   S
    C181   O622      0.69103      .   S
    C185   O622      0.69103      .   S
    C180   O623      0.69103      .   S
    C184   O623      0.69103      .   S
    C207   O624      0.69222      .   S
    C211   O624      0.69222      .   S
    C172   O625      0.75668      .   S
    C176   O625      0.75668      .   S
    C173   O626      0.75668      .   S
    C177   O626      0.75668      .   S
    C174   O627      0.75668      .   S
    C178   O627      0.75668      .   S
    C175   O628      0.75668      .   S
    C179   O628      0.75668      .   S
    C204   O629      0.69222      .   S
    C208   O629      0.69222      .   S
    C205   O630      0.69222      .   S
    C209   O630      0.69222      .   S
    C206   O631      0.69222      .   S
    C210   O631      0.69222      .   S
    C195   O632      0.68976      .   S
    C199   O632      0.68976      .   S
    C194   O633      0.68976      .   S
    C198   O633      0.68976      .   S
    C193   O634      0.68976      .   S
    C197   O634      0.68976      .   S
    C192   O635      0.68976      .   S
    C196   O635      0.68976      .   S
    C188   O636      1.00682  1_455   S
    C6     O636      1.00682      .   S
    C188   O637      0.68123      .   S
    C72    O637      0.68123      .   S
    C190   O638      1.00674      .   S
    C4     O638      1.00674      .   S
    C190   O639      0.68123      .   S
    C74    O639      0.68123      .   S
    C189   O640      1.00682  1_455   S
    C7     O640      1.00682      .   S
    C189   O641      0.68122      .   S
    C73    O641      0.68122      .   S
    C191   O642      1.00674      .   S
    C5     O642      1.00674      .   S
    C191   O643      0.68123      .   S
    C75    O643      0.68123      .   S
    C212   O644      1.00839  1_545   S
    C5     O644      1.00839      .   S
    C212   O645      0.68135      .   S
    C88    O645      0.68135      .   S
    C213   O646      1.00856      .   S
    C4     O646      1.00856      .   S
    C213   O647      0.68135      .   S
    C89    O647      0.68135      .   S
    C214   O648      1.00840  1_545   S
    C7     O648      1.00840      .   S
    C214   O649      0.68135      .   S
    C90    O649      0.68135      .   S
    C215   O650      1.00857      .   S
    C6     O650      1.00857      .   S
    C215   O651      0.68135      .   S
    C91    O651      0.68135      .   S
    C203   O652      1.02182      .   S
    C7     O652      1.02182      .   S
    C203   O653      0.68187      .   S
    C83    O653      0.68187      .   S
    C202   O654      1.02182      .   S
    C6     O654      1.02182      .   S
    C202   O655      0.68187      .   S
    C82    O655      0.68187      .   S
    C201   O656      1.02184      .   S
    C5     O656      1.02184      .   S
    C201   O657      0.68186      .   S
    C81    O657      0.68186      .   S
    C200   O658      1.02182      .   S
    C4     O658      1.02182      .   S
    C200   O659      0.68187      .   S
    C80    O659      0.68187      .   S
    C279   O660      0.72516      .   S
    C177   O660      0.72516      .   S
    C278   O661      0.72518      .   S
    C176   O661      0.72518      .   S
    C277   O662      0.61709      .   S
    C179   O662      0.61709      .   S
    C276   O663      0.61710      .   S
    C178   O663      0.61710      .   S
    C179   O664      0.64981      .   S
    C283   O664      0.64981      .   S
    C178   O665      0.64981      .   S
    C282   O665      0.64981      .   S
    C177   O666      0.64981      .   S
    C281   O666      0.64981      .   S
    C176   O667      0.64981      .   S
    C280   O667      0.64981      .   S
    C187   O668      0.66227      .   S
    C75    O668      0.66227      .   S
    C186   O669      0.66227      .   S
    C74    O669      0.66227      .   S
    C185   O670      0.66227      .   S
    C73    O670      0.66227      .   S
    C184   O671      0.66227      .   S
    C72    O671      0.66227      .   S
    C210   O672      0.66292      .   S
    C90    O672      0.66292      .   S
    C208   O673      0.66292      .   S
    C88    O673      0.66292      .   S
    C211   O674      0.66292      .   S
    C91    O674      0.66292      .   S
    C209   O675      0.66292      .   S
    C89    O675      0.66292      .   S
    C196   O676      0.66301      .   S
    C80    O676      0.66301      .   S
    C197   O677      0.66301      .   S
    C81    O677      0.66301      .   S
    C198   O678      0.66300      .   S
    C82    O678      0.66300      .   S
    C199   O679      0.66300      .   S
    C83    O679      0.66300      .   S
    C268   O680      1.10354      .   S
    C16    O680      1.10354      .   S
    C269   O681      0.96283      .   S
    C9     O681      0.96283      .   S
    C270   O682      1.10354      .   S
    C18    O682      1.10354      .   S
    C271   O683      1.10354      .   S
    C19    O683      1.10354      .   S
