# CIF file generated by openbabel 2.4.90, see http://openbabel.sf.net
data_I
_chemical_name_common ''
_cell_length_a 19.592
_cell_length_b 14.263
_cell_length_c 14.27
_cell_angle_alpha 102.889
_cell_angle_beta 103.382
_cell_angle_gamma 103.151
_space_group_name_H-M_alt 'P 1'
_space_group_name_Hall 'P 1'
loop_
    _symmetry_equiv_pos_as_xyz
    x,y,z
loop_
    _atom_site_label
    _atom_site_type_symbol
    _atom_site_fract_x
    _atom_site_fract_y
    _atom_site_fract_z
    _atom_site_occupancy
    Lv0     Lv   0.87023   0.72029   0.81123   1.000
    Lv1     Lv   0.87966   0.18835   0.27660   1.000
    Lv2     Lv   0.25003   0.50002   0.00007   1.000
    Lv3     Lv   0.00003   0.00005   0.49998   1.000
    Lv4     Lv   0.37965   0.18835   0.27663   1.000
    Lv5     Lv   0.50003   0.00003   0.49998   1.000
    Lv6     Lv   0.62983   0.27970   0.18874   1.000
    Lv7     Lv   0.12983   0.27970   0.18875   1.000
    Lv8     Lv   0.62040   0.81168   0.72327   1.000
    Lv9     Lv   0.12040   0.81168   0.72332   1.000
    Lv10    Lv   0.37023   0.72030   0.81123   1.000
    Lv11    Lv   0.75004   0.50001   0.99998   1.000
