# CIF file generated by openbabel 2.4.90, see http://openbabel.sf.net
data_I
_chemical_name_common ''
_cell_length_a 19.592
_cell_length_b 14.263
_cell_length_c 14.27
_cell_angle_alpha 102.889
_cell_angle_beta 103.382
_cell_angle_gamma 103.151
_space_group_name_H-M_alt 'P 1'
_space_group_name_Hall 'P 1'
loop_
    _symmetry_equiv_pos_as_xyz
    x,y,z
loop_
    _atom_site_label
    _atom_site_type_symbol
    _atom_site_fract_x
    _atom_site_fract_y
    _atom_site_fract_z
    _atom_site_occupancy
    Zn0     Zn   0.95312   0.26753   0.83478   1.000
    Zn1     Zn   0.29782   0.16186   0.72856   1.000
    Zn2     Zn   0.79783   0.16184   0.72857   1.000
    Zn3     Zn   0.04696   0.73248   0.16519   1.000
    Zn4     Zn   0.54696   0.73248   0.16519   1.000
    Zn5     Zn   0.20224   0.83809   0.27138   1.000
    Zn6     Zn   0.70224   0.83810   0.27139   1.000
    Zn7     Zn   0.45311   0.26754   0.83477   1.000
    C8      C    0.34761   0.38590   0.78672   1.000
    C9      C    0.84760   0.38589   0.78674   1.000
    C10     C    0.40465   0.04515   0.78908   1.000
    C11     C    0.90467   0.04515   0.78910   1.000
    C12     C    0.40292   0.21005   0.61059   1.000
    C13     C    0.90293   0.21005   0.61061   1.000
    C14     C    0.34588   0.20878   0.95120   1.000
    C15     C    0.84589   0.20877   0.95124   1.000
    C16     C    0.15248   0.61410   0.21319   1.000
    C17     C    0.65247   0.61410   0.21320   1.000
    C18     C    0.09541   0.95486   0.21090   1.000
    C19     C    0.59542   0.95486   0.21094   1.000
    C20     C    0.09714   0.78992   0.38936   1.000
    C21     C    0.59714   0.78994   0.38937   1.000
    C22     C    0.15415   0.79125   0.04872   1.000
    C23     C    0.65416   0.79125   0.04873   1.000
    O24     O    0.45884   0.12411   0.83624   1.000
    O25     O    0.95886   0.12410   0.83625   1.000
    O26     O    0.41487   0.38679   0.81487   1.000
    O27     O    0.91486   0.38677   0.81487   1.000
    O28     O    0.29161   0.30957   0.76097   1.000
    O29     O    0.79161   0.30956   0.76098   1.000
    O30     O    0.34311   0.04132   0.73071   1.000
    O31     O    0.84312   0.04132   0.73075   1.000
    O32     O    0.29194   0.16074   0.87200   1.000
    O33     O    0.79194   0.16074   0.87211   1.000
    O34     O    0.33570   0.18129   0.60936   1.000
    O35     O    0.83571   0.18129   0.60937   1.000
    O36     O    0.45900   0.23520   0.68698   1.000
    O37     O    0.95900   0.23520   0.68699   1.000
    O38     O    0.40748   0.26658   0.95505   1.000
    O39     O    0.90749   0.26654   0.95505   1.000
    O40     O    0.04122   0.87591   0.16375   1.000
    O41     O    0.54123   0.87591   0.16377   1.000
    O42     O    0.08522   0.61323   0.18507   1.000
    O43     O    0.58521   0.61323   0.18507   1.000
    O44     O    0.20848   0.69042   0.23897   1.000
    O45     O    0.70847   0.69042   0.23898   1.000
    O46     O    0.15695   0.95868   0.26929   1.000
    O47     O    0.65696   0.95869   0.26931   1.000
    O48     O    0.20810   0.83926   0.12786   1.000
    O49     O    0.70810   0.83928   0.12787   1.000
    O50     O    0.16437   0.81867   0.39059   1.000
    O51     O    0.66437   0.81868   0.39060   1.000
    O52     O    0.04107   0.76480   0.31297   1.000
    O53     O    0.54107   0.76481   0.31298   1.000
    O54     O    0.09255   0.73348   0.04490   1.000
    O55     O    0.59256   0.73346   0.04491   1.000
    Ts56    Ts   0.98940   0.29574   0.85749   1.000
    Ts57    Ts   0.26149   0.13964   0.70071   1.000
    Ts58    Ts   0.76149   0.13961   0.70071   1.000
    Ts59    Ts   0.01068   0.70427   0.14250   1.000
    Ts60    Ts   0.51068   0.70428   0.14251   1.000
    Ts61    Ts   0.23857   0.86034   0.29924   1.000
    Ts62    Ts   0.73857   0.86035   0.29923   1.000
    Ts63    Ts   0.48940   0.29574   0.85747   1.000
    Og64    Og   0.34357   0.41855   0.78585   1.000
    Og65    Og   0.84356   0.41854   0.78587   1.000
    Og66    Og   0.40758   0.01319   0.79436   1.000
    Og67    Og   0.90759   0.01318   0.79438   1.000
    Og68    Og   0.40689   0.21136   0.57803   1.000
    Og69    Og   0.90690   0.21136   0.57805   1.000
    Og70    Og   0.34282   0.20404   0.98329   1.000
    Og71    Og   0.84282   0.20402   0.98332   1.000
    Og72    Og   0.15651   0.58144   0.21405   1.000
    Og73    Og   0.65651   0.58144   0.21407   1.000
    Og74    Og   0.09248   0.98682   0.20563   1.000
    Og75    Og   0.59249   0.98683   0.20566   1.000
    Og76    Og   0.09318   0.78861   0.42191   1.000
    Og77    Og   0.59318   0.78863   0.42192   1.000
    Og78    Og   0.15722   0.79600   0.01664   1.000
    Og79    Og   0.65723   0.79600   0.01665   1.000
loop_
    _geom_bond_atom_site_label_1
    _geom_bond_atom_site_label_2
    _geom_bond_distance
    _geom_bond_site_symmetry_2
    _ccdc_geom_bond_type
    O54    C22       1.27890      .   S
    O54    Zn3       2.11179      .   S
    O55    C23       1.27895      .   S
    O55    Zn4       2.11170      .   S
    C22    O48       1.27852      .   S
    C23    O49       1.27849      .   S
    O48    Zn5       2.08118      .   S
    O49    Zn6       2.08116      .   S
    O40    Zn3       2.07862      .   S
    O40    C18       1.27871      .   S
    O41    Zn4       2.07855      .   S
    O41    C19       1.27877      .   S
    Zn3    O42       2.05730      .   S
    Zn3    O52       2.09186      .   S
    Zn4    O43       2.05719      .   S
    Zn4    O53       2.09204      .   S
    O43    C17       1.28186      .   S
    O42    C16       1.28184      .   S
    C18    O46       1.27890      .   S
    C19    O47       1.27877      .   S
    C16    O44       1.27089      .   S
    C17    O45       1.27089      .   S
    O44    Zn5       2.09142      .   S
    O45    Zn6       2.09142      .   S
    O46    Zn5       2.10993      .   S
    O47    Zn6       2.10984      .   S
    Zn5    O50       2.05476      .   S
    Zn6    O51       2.05483      .   S
    O52    C20       1.27112      .   S
    O53    C21       1.27110      .   S
    C20    O50       1.28196      .   S
    C21    O51       1.28194      .   S
    O34    C12       1.28191      .   S
    O34    Zn1       2.05476      .   S
    O35    C13       1.28190      .   S
    O35    Zn2       2.05482      .   S
    C12    O36       1.27111      .   S
    C13    O37       1.27102      .   S
    O36    Zn7       2.09202      .   S
    O37    Zn0       2.09200      .   S
    Zn1    O30       2.10940      .   S
    Zn1    O28       2.09169      .   S
    Zn1    O32       2.07993      .   S
    Zn2    O31       2.10929      .   S
    Zn2    O29       2.09179      .   S
    Zn2    O33       2.08134      .   S
    O30    C10       1.27876      .   S
    O31    C11       1.27870      .   S
    O28    C8        1.27085      .   S
    O29    C9        1.27085      .   S
    C8     O26       1.28190      .   S
    C9     O27       1.28189      .   S
    C10    O24       1.27877      .   S
    C11    O25       1.27877      .   S
    O26    Zn7       2.05714      .   S
    O27    Zn0       2.05721      .   S
    Zn7    O24       2.07862      .   S
    Zn7    O38       2.11203      .   S
    Zn0    O25       2.07871      .   S
    Zn0    O39       2.11193      .   S
    O32    C14       1.27897      .   S
    O33    C15       1.27846      .   S
    C14    O38       1.27882      .   S
    C15    O39       1.27894      .   S
    Zn7    Zn1       2.93006      .   S
    Zn0    Zn2       2.93015      .   S
    Zn3    Zn5       2.92971      .   S
    Zn4    Zn6       2.92976      .   S
    Zn0    Ts56      0.69074      .   S
    Zn1    Ts57      0.68942      .   S
    Zn2    Ts58      0.68943      .   S
    Zn3    Ts59      0.69073      .   S
    Zn4    Ts60      0.69080      .   S
    Zn5    Ts61      0.68945      .   S
    Zn6    Ts62      0.68937      .   S
    Zn7    Ts63      0.69081      .   S
    C8     Og64      0.49218      .   S
    C9     Og65      0.49218      .   S
    C10    Og66      0.49194      .   S
    C11    Og67      0.49195      .   S
    C12    Og68      0.49218      .   S
    C13    Og69      0.49209      .   S
    C14    Og70      0.49254      .   S
    C15    Og71      0.49239      .   S
    C16    Og72      0.49217      .   S
    C17    Og73      0.49217      .   S
    C18    Og74      0.49190      .   S
    C19    Og75      0.49194      .   S
    C20    Og76      0.49204      .   S
    C21    Og77      0.49203      .   S
    C22    Og78      0.49237      .   S
    C23    Og79      0.49237      .   S
