# CIF file generated by openbabel 2.4.90, see http://openbabel.sf.net
data_I
_chemical_name_common ''
_cell_length_a 19.592
_cell_length_b 14.263
_cell_length_c 14.27
_cell_angle_alpha 102.889
_cell_angle_beta 103.382
_cell_angle_gamma 103.151
_space_group_name_H-M_alt 'P 1'
_space_group_name_Hall 'P 1'
loop_
    _symmetry_equiv_pos_as_xyz
    x,y,z
loop_
    _atom_site_label
    _atom_site_type_symbol
    _atom_site_fract_x
    _atom_site_fract_y
    _atom_site_fract_z
    _atom_site_occupancy
    C0      C    0.34761   0.38590   0.78672   1.000
    C1      C    0.84760   0.38589   0.78674   1.000
    C2      C    0.40465   0.04515   0.78908   1.000
    C3      C    0.90467   0.04515   0.78910   1.000
    C4      C    0.40292   0.21005   0.61059   1.000
    C5      C    0.90293   0.21005   0.61061   1.000
    C6      C    0.34588   0.20878   0.95120   1.000
    C7      C    0.84589   0.20877   0.95124   1.000
    C8      C    0.15248   0.61410   0.21319   1.000
    C9      C    0.65247   0.61410   0.21320   1.000
    C10     C    0.09541   0.95486   0.21090   1.000
    C11     C    0.59542   0.95486   0.21094   1.000
    C12     C    0.09714   0.78992   0.38936   1.000
    C13     C    0.59714   0.78994   0.38937   1.000
    C14     C    0.15415   0.79125   0.04872   1.000
    C15     C    0.65416   0.79125   0.04873   1.000
