# CIF file generated by openbabel 2.4.90, see http://openbabel.sf.net
data_I
_chemical_name_common ''
_cell_length_a 19.592
_cell_length_b 14.263
_cell_length_c 14.27
_cell_angle_alpha 102.889
_cell_angle_beta 103.382
_cell_angle_gamma 103.151
_space_group_name_H-M_alt 'P 1'
_space_group_name_Hall 'P 1'
loop_
    _symmetry_equiv_pos_as_xyz
    x,y,z
loop_
    _atom_site_label
    _atom_site_type_symbol
    _atom_site_fract_x
    _atom_site_fract_y
    _atom_site_fract_z
    _atom_site_occupancy
    N0      N    0.87023   0.72029   0.81123   1.000
    N1      N    0.87966   0.18835   0.27660   1.000
    N2      N    0.25003   0.50002   0.00007   1.000
    N3      N    0.00003   0.00005   0.49998   1.000
    N4      N    0.37965   0.18835   0.27663   1.000
    N5      N    0.50003   0.00003   0.49998   1.000
    N6      N    0.62983   0.27970   0.18874   1.000
    N7      N    0.12983   0.27970   0.18875   1.000
    N8      N    0.62040   0.81168   0.72327   1.000
    N9      N    0.12040   0.81168   0.72332   1.000
    N10     N    0.37023   0.72030   0.81123   1.000
    N11     N    0.75004   0.50001   0.99998   1.000
    Zr12    Zr   0.87533   0.21320   0.78339   1.000
    O13     O    0.88480   0.20669   0.60129   1.000
    O14     O    0.74850   0.13873   0.68838   1.000
    O15     O    0.86561   0.39539   0.79086   1.000
    O16     O    0.88249   0.03597   0.79375   1.000
    O17     O    0.00206   0.30907   0.85892   1.000
    O18     O    0.86790   0.20410   0.96068   1.000
    Zr19    Zr   0.37533   0.21320   0.78336   1.000
    O20     O    0.38479   0.20669   0.60128   1.000
    O21     O    0.36561   0.39540   0.79084   1.000
    O22     O    0.50206   0.30907   0.85888   1.000
    O23     O    0.24850   0.13875   0.68837   1.000
    O24     O    0.36790   0.20411   0.96067   1.000
    O25     O    0.38248   0.03598   0.79374   1.000
    Zr26    Zr   0.12474   0.78680   0.21658   1.000
    O27     O    0.13216   0.79591   0.03927   1.000
    O28     O    0.25156   0.86127   0.31158   1.000
    O29     O    0.11527   0.79331   0.39867   1.000
    O30     O    0.13446   0.60460   0.20910   1.000
    O31     O    0.11758   0.96402   0.20623   1.000
    O32     O    0.99802   0.69094   0.14107   1.000
    Zr33    Zr   0.62474   0.78680   0.21659   1.000
    O34     O    0.63216   0.79591   0.03927   1.000
    O35     O    0.75156   0.86128   0.31158   1.000
    O36     O    0.61759   0.96403   0.20624   1.000
    O37     O    0.61527   0.79331   0.39866   1.000
    O38     O    0.63446   0.60460   0.20911   1.000
    O39     O    0.49801   0.69095   0.14111   1.000
loop_
    _geom_bond_atom_site_label_1
    _geom_bond_atom_site_label_2
    _geom_bond_distance
    _geom_bond_site_symmetry_2
    _ccdc_geom_bond_type
    Zr12   O13       2.63037      .   S
    N1     O13       4.55815      .   S
    Zr12   O14       2.39532      .   S
    N5     O14       4.69333      .   S
    Zr12   O15       2.62895      .   S
    N0     O15       4.55668      .   S
    Zr12   O16       2.59800      .   S
    N0     O16       4.51990  1_565   S
    Zr12   O17       2.39890  1_655   S
    N2     O17       4.69890  1_554   S
    Zr12   O18       2.59758      .   S
    N1     O18       4.51905  1_554   S
    Zr19   O20       2.63022      .   S
    N4     O20       4.55762      .   S
    Zr19   O21       2.62893      .   S
    N10    O21       4.55667      .   S
    Zr19   O22       2.39896      .   S
    N11    O22       4.69902      .   S
    Zr19   O23       2.39526      .   S
    N3     O23       4.69321      .   S
    Zr19   O24       2.59774      .   S
    N4     O24       4.51958  1_554   S
    Zr19   O25       2.59802      .   S
    N10    O25       4.51994  1_565   S
    Zr26   O27       2.59776      .   S
    N9     O27       4.51956  1_556   S
    Zr26   O28       2.39522      .   S
    N5     O28       4.69323  1_545   S
    Zr26   O29       2.63022      .   S
    N9     O29       4.55768      .   S
    Zr26   O30       2.62899      .   S
    N7     O30       4.55670      .   S
    Zr26   O31       2.59798      .   S
    N7     O31       4.51984  1_545   S
    Zr26   O32       2.39881  1_455   S
    N11    O32       4.69880  1_556   S
    Zr33   O34       2.59801      .   S
    N8     O34       4.52028  1_556   S
    Zr33   O35       2.39520      .   S
    N3     O35       4.69321  1_445   S
    Zr33   O36       2.59797      .   S
    N6     O36       4.51989  1_545   S
    Zr33   O37       2.62996      .   S
    N8     O37       4.55696      .   S
    Zr33   O38       2.62898      .   S
    N6     O38       4.55669      .   S
    Zr33   O39       2.39887      .   S
    N2     O39       4.69892      .   S
