# CIF file generated by openbabel 2.4.90, see http://openbabel.sf.net
data_I
_chemical_name_common ''
_cell_length_a 19.592
_cell_length_b 14.263
_cell_length_c 14.27
_cell_angle_alpha 102.889
_cell_angle_beta 103.382
_cell_angle_gamma 103.151
_space_group_name_H-M_alt 'P 1'
_space_group_name_Hall 'P 1'
loop_
    _symmetry_equiv_pos_as_xyz
    x,y,z
loop_
    _atom_site_label
    _atom_site_type_symbol
    _atom_site_fract_x
    _atom_site_fract_y
    _atom_site_fract_z
    _atom_site_occupancy
    C0      C    0.45311   0.26754   0.83477   1.000
    C1      C    0.95312   0.26753   0.83478   1.000
    C2      C    0.29782   0.16186   0.72856   1.000
    C3      C    0.79783   0.16184   0.72857   1.000
    C4      C    0.04696   0.73248   0.16519   1.000
    C5      C    0.54696   0.73248   0.16519   1.000
    C6      C    0.20224   0.83809   0.27138   1.000
    C7      C    0.70224   0.83810   0.27139   1.000
    C8      C    0.23754   0.64328   0.74037   1.000
    C9      C    0.73754   0.64326   0.74034   1.000
    C10     C    0.48933   0.81044   0.93555   1.000
    C11     C    0.98934   0.81042   0.93555   1.000
    C12     C    0.21725   0.45004   0.72679   1.000
    C13     C    0.71725   0.45003   0.72677   1.000
    C14     C    0.01674   0.99641   0.92350   1.000
    C15     C    0.51674   0.99643   0.92356   1.000
    C16     C    0.16385   0.59427   0.98158   1.000
    C17     C    0.66383   0.59431   0.98229   1.000
    C18     C    0.23029   0.32217   0.96496   1.000
    C19     C    0.73033   0.32211   0.96397   1.000
    C20     C    0.03608   0.48651   0.91242   1.000
    C21     C    0.53608   0.48655   0.91301   1.000
    C22     C    0.09893   0.22678   0.89979   1.000
    C23     C    0.59897   0.22673   0.89904   1.000
    C24     C    0.01226   0.25861   0.35382   1.000
    C25     C    0.51227   0.25861   0.35380   1.000
    C26     C    0.25977   0.06632   0.18665   1.000
    C27     C    0.75978   0.06634   0.18660   1.000
    C28     C    0.03304   0.27033   0.54674   1.000
    C29     C    0.53305   0.27033   0.54672   1.000
    C30     C    0.23301   0.07705   0.00019   1.000
    C31     C    0.73301   0.07705   0.00020   1.000
    C32     C    0.08461   0.01606   0.40376   1.000
    C33     C    0.58461   0.01626   0.40377   1.000
    C34     C    0.02163   0.03731   0.67832   1.000
    C35     C    0.52164   0.03703   0.67830   1.000
    C36     C    0.21303   0.08390   0.50952   1.000
    C37     C    0.71303   0.08407   0.50954   1.000
    C38     C    0.15357   0.10054   0.77170   1.000
    C39     C    0.65359   0.10028   0.77168   1.000
    C40     C    0.26252   0.35672   0.25968   1.000
    C41     C    0.76252   0.35672   0.25965   1.000
    C42     C    0.01072   0.18956   0.06446   1.000
    C43     C    0.51072   0.18955   0.06446   1.000
    C44     C    0.28282   0.54995   0.27320   1.000
    C45     C    0.78281   0.54995   0.27318   1.000
    C46     C    0.48333   0.00356   0.07647   1.000
    C47     C    0.98334   0.00357   0.07646   1.000
    C48     C    0.33626   0.40569   0.01689   1.000
    C49     C    0.83625   0.40571   0.01756   1.000
    C50     C    0.26971   0.67798   0.03708   1.000
    C51     C    0.76975   0.67793   0.03614   1.000
    C52     C    0.46401   0.51343   0.08627   1.000
    C53     C    0.96401   0.51346   0.08684   1.000
    C54     C    0.40107   0.77335   0.10174   1.000
    C55     C    0.90111   0.77330   0.10105   1.000
    C56     C    0.48778   0.74147   0.64616   1.000
    C57     C    0.98779   0.74148   0.64615   1.000
    C58     C    0.24026   0.93370   0.81330   1.000
    C59     C    0.74027   0.93371   0.81331   1.000
    C60     C    0.46701   0.72972   0.45320   1.000
    C61     C    0.96702   0.72972   0.45322   1.000
    C62     C    0.26703   0.92299   0.99976   1.000
    C63     C    0.76703   0.92300   0.99977   1.000
    C64     C    0.41546   0.98332   0.59610   1.000
    C65     C    0.91547   0.98324   0.59610   1.000
    C66     C    0.47840   0.96361   0.32171   1.000
    C67     C    0.97841   0.96372   0.32172   1.000
    C68     C    0.28703   0.91552   0.49040   1.000
    C69     C    0.78704   0.91546   0.49040   1.000
    C70     C    0.34646   0.90018   0.22832   1.000
    C71     C    0.84647   0.90023   0.22833   1.000
    C72     C    0.38793   0.77189   0.81270   1.000
    C73     C    0.88793   0.77188   0.81278   1.000
    C74     C    0.33550   0.48386   0.78411   1.000
    C75     C    0.83549   0.48385   0.78414   1.000
    C76     C    0.34761   0.38590   0.78672   1.000
    C77     C    0.84760   0.38589   0.78674   1.000
    C78     C    0.28156   0.60967   0.75972   1.000
    C79     C    0.78156   0.60965   0.75972   1.000
    C80     C    0.40465   0.04515   0.78908   1.000
    C81     C    0.90467   0.04515   0.78910   1.000
    C82     C    0.45421   0.83525   0.88128   1.000
    C83     C    0.95422   0.83523   0.88120   1.000
    C84     C    0.27049   0.50681   0.75296   1.000
    C85     C    0.77048   0.50680   0.75296   1.000
    C86     C    0.21090   0.46913   0.97994   1.000
    C87     C    0.71091   0.46911   0.97980   1.000
    C88     C    0.41343   0.94926   0.80492   1.000
    C89     C    0.91344   0.94926   0.80494   1.000
    C90     C    0.35544   0.66568   0.79651   1.000
    C91     C    0.85544   0.66567   0.79652   1.000
    C92     C    0.46875   0.93493   0.87560   1.000
    C93     C    0.96876   0.93491   0.87560   1.000
    C94     C    0.15362   0.51326   0.96410   1.000
    C95     C    0.65362   0.51328   0.96441   1.000
    C96     C    0.19009   0.36347   0.95581   1.000
    C97     C    0.69012   0.36344   0.95527   1.000
    C98     C    0.08107   0.45356   0.92588   1.000
    C99     C    0.58107   0.45357   0.92618   1.000
    C100    C    0.11632   0.30860   0.91844   1.000
    C101    C    0.61635   0.30857   0.91797   1.000
    C102    C    0.36171   0.18771   0.22525   1.000
    C103    C    0.86172   0.18771   0.22526   1.000
    C104    C    0.41482   0.21399   0.51290   1.000
    C105    C    0.91483   0.21399   0.51294   1.000
    C106    C    0.40292   0.21005   0.61059   1.000
    C107    C    0.90293   0.21005   0.61061   1.000
    C108    C    0.46836   0.23934   0.38738   1.000
    C109    C    0.96838   0.23934   0.38700   1.000
    C110    C    0.34588   0.20878   0.95120   1.000
    C111    C    0.84589   0.20877   0.95124   1.000
    C112    C    0.29519   0.11989   0.16178   1.000
    C113    C    0.79520   0.11989   0.16180   1.000
    C114    C    0.47970   0.24509   0.49006   1.000
    C115    C    0.97972   0.24509   0.49008   1.000
    C116    C    0.03930   0.01993   0.53034   1.000
    C117    C    0.53931   0.01992   0.53033   1.000
    C118    C    0.33669   0.19454   0.04747   1.000
    C119    C    0.83670   0.19453   0.04748   1.000
    C120    C    0.39438   0.20347   0.33144   1.000
    C121    C    0.89439   0.20348   0.33145   1.000
    C122    C    0.28098   0.12490   0.06187   1.000
    C123    C    0.78098   0.12490   0.06180   1.000
    C124    C    0.09576   0.03435   0.48494   1.000
    C125    C    0.59576   0.03443   0.48494   1.000
    C126    C    0.06118   0.04495   0.63609   1.000
    C127    C    0.56119   0.04478   0.63608   1.000
    C128    C    0.16867   0.07169   0.54353   1.000
    C129    C    0.66867   0.07179   0.54350   1.000
    C130    C    0.13524   0.08129   0.68982   1.000
    C131    C    0.63525   0.08115   0.68981   1.000
    C132    C    0.11212   0.22811   0.18723   1.000
    C133    C    0.61213   0.22811   0.18724   1.000
    C134    C    0.16458   0.51612   0.21578   1.000
    C135    C    0.66457   0.51613   0.21581   1.000
    C136    C    0.15248   0.61410   0.21319   1.000
    C137    C    0.65247   0.61410   0.21320   1.000
    C138    C    0.21850   0.39033   0.24028   1.000
    C139    C    0.71850   0.39033   0.24020   1.000
    C140    C    0.09541   0.95486   0.21090   1.000
    C141    C    0.59542   0.95486   0.21094   1.000
    C142    C    0.04584   0.16476   0.11873   1.000
    C143    C    0.54585   0.16475   0.11870   1.000
    C144    C    0.22958   0.49318   0.24700   1.000
    C145    C    0.72958   0.49318   0.24700   1.000
    C146    C    0.28915   0.53092   0.02030   1.000
    C147    C    0.78917   0.53091   0.02018   1.000
    C148    C    0.08663   0.05075   0.19510   1.000
    C149    C    0.58664   0.05075   0.19511   1.000
    C150    C    0.14462   0.33432   0.20347   1.000
    C151    C    0.64462   0.33432   0.20347   1.000
    C152    C    0.03130   0.06508   0.12439   1.000
    C153    C    0.53131   0.06508   0.12440   1.000
    C154    C    0.34646   0.48673   0.03521   1.000
    C155    C    0.84646   0.48674   0.03550   1.000
    C156    C    0.30993   0.63662   0.04500   1.000
    C157    C    0.80996   0.63659   0.04478   1.000
    C158    C    0.41901   0.54643   0.07344   1.000
    C159    C    0.91901   0.54644   0.07373   1.000
    C160    C    0.38371   0.69149   0.08250   1.000
    C161    C    0.88374   0.69146   0.08200   1.000
    C162    C    0.13833   0.81232   0.77471   1.000
    C163    C    0.63834   0.81232   0.77472   1.000
    C164    C    0.08524   0.78599   0.48702   1.000
    C165    C    0.58525   0.78601   0.48703   1.000
    C166    C    0.09714   0.78992   0.38936   1.000
    C167    C    0.59714   0.78994   0.38937   1.000
    C168    C    0.03168   0.76071   0.61257   1.000
    C169    C    0.53169   0.76071   0.61258   1.000
    C170    C    0.15415   0.79125   0.04872   1.000
    C171    C    0.65416   0.79125   0.04873   1.000
    C172    C    0.20484   0.88014   0.83817   1.000
    C173    C    0.70485   0.88015   0.83818   1.000
    C174    C    0.02035   0.75494   0.50988   1.000
    C175    C    0.52036   0.75494   0.50900   1.000
    C176    C    0.46075   0.98018   0.46964   1.000
    C177    C    0.96076   0.98022   0.46965   1.000
    C178    C    0.16335   0.80551   0.95249   1.000
    C179    C    0.66336   0.80550   0.95250   1.000
    C180    C    0.10566   0.79655   0.66851   1.000
    C181    C    0.60567   0.79655   0.66852   1.000
    C182    C    0.21906   0.87514   0.93809   1.000
    C183    C    0.71907   0.87515   0.93810   1.000
    C184    C    0.40430   0.96539   0.51502   1.000
    C185    C    0.90431   0.96534   0.51502   1.000
    C186    C    0.43886   0.95558   0.36391   1.000
    C187    C    0.93886   0.95562   0.36392   1.000
    C188    C    0.33139   0.92801   0.45642   1.000
    C189    C    0.83140   0.92799   0.45640   1.000
    C190    C    0.36480   0.91913   0.31018   1.000
    C191    C    0.86481   0.91919   0.31019   1.000
    C192    C    0.34436   0.83730   0.74153   1.000
    C193    C    0.84436   0.83730   0.74156   1.000
    C194    C    0.41067   0.58938   0.82160   1.000
    C195    C    0.91066   0.58938   0.82160   1.000
    C196    C    0.40572   0.25779   0.15970   1.000
    C197    C    0.90574   0.25777   0.15970   1.000
    C198    C    0.33941   0.17793   0.40758   1.000
    C199    C    0.83942   0.17794   0.40759   1.000
    C200    C    0.15570   0.16271   0.25847   1.000
    C201    C    0.65571   0.16272   0.25840   1.000
    C202    C    0.08940   0.41061   0.17829   1.000
    C203    C    0.58939   0.41061   0.17833   1.000
    C204    C    0.09431   0.74227   0.84026   1.000
    C205    C    0.59432   0.74226   0.84027   1.000
    C206    C    0.16064   0.82203   0.59237   1.000
    C207    C    0.66064   0.82205   0.59238   1.000
    C208    C    0.06195   0.35216   0.90291   1.000
    C209    C    0.56196   0.35216   0.90286   1.000
    C210    C    0.18882   0.09520   0.64500   1.000
    C211    C    0.68883   0.09515   0.64500   1.000
    C212    C    0.43811   0.64787   0.09716   1.000
    C213    C    0.93812   0.64786   0.09711   1.000
    C214    C    0.31122   0.90486   0.35497   1.000
    C215    C    0.81124   0.90484   0.35490   1.000
    C216    C    0.45884   0.12411   0.83624   1.000
    C217    C    0.95886   0.12410   0.83625   1.000
    C218    C    0.41487   0.38679   0.81487   1.000
    C219    C    0.91486   0.38677   0.81487   1.000
    C220    C    0.29161   0.30957   0.76097   1.000
    C221    C    0.79161   0.30956   0.76098   1.000
    C222    C    0.34311   0.04132   0.73071   1.000
    C223    C    0.84312   0.04132   0.73075   1.000
    C224    C    0.29194   0.16074   0.87200   1.000
    C225    C    0.79194   0.16074   0.87211   1.000
    C226    C    0.33570   0.18129   0.60936   1.000
    C227    C    0.83571   0.18129   0.60937   1.000
    C228    C    0.45900   0.23520   0.68698   1.000
    C229    C    0.95900   0.23520   0.68699   1.000
    C230    C    0.40748   0.26658   0.95505   1.000
    C231    C    0.90749   0.26654   0.95505   1.000
    C232    C    0.04122   0.87591   0.16375   1.000
    C233    C    0.54123   0.87591   0.16377   1.000
    C234    C    0.08522   0.61323   0.18507   1.000
    C235    C    0.58521   0.61323   0.18507   1.000
    C236    C    0.20848   0.69042   0.23897   1.000
    C237    C    0.70847   0.69042   0.23898   1.000
    C238    C    0.15695   0.95868   0.26929   1.000
    C239    C    0.65696   0.95869   0.26931   1.000
    C240    C    0.20810   0.83926   0.12786   1.000
    C241    C    0.70810   0.83928   0.12787   1.000
    C242    C    0.16437   0.81867   0.39059   1.000
    C243    C    0.66437   0.81868   0.39060   1.000
    C244    C    0.04107   0.76480   0.31297   1.000
    C245    C    0.54107   0.76481   0.31298   1.000
    C246    C    0.09255   0.73348   0.04490   1.000
    C247    C    0.59256   0.73346   0.04491   1.000
    O248    O    0.25699   0.10097   0.03103   1.000
    O249    O    0.75700   0.10098   0.03100   1.000
    O250    O    0.34136   0.44621   0.02605   1.000
    O251    O    0.84136   0.44623   0.02653   1.000
    O252    O    0.81782   0.50883   0.02784   1.000
    O253    O    0.79957   0.58375   0.03248   1.000
    O254    O    0.75004   0.50001   0.99999   1.000
    O255    O    0.31781   0.50883   0.02775   1.000
    O256    O    0.29954   0.58377   0.03265   1.000
    O257    O    0.25003   0.50002   0.00012   1.000
    O258    O    0.38274   0.51658   0.05432   1.000
    O259    O    0.88274   0.51659   0.05461   1.000
    O260    O    0.78985   0.65726   0.04046   1.000
    O261    O    0.28982   0.65730   0.04104   1.000
    O262    O    0.84685   0.66403   0.06339   1.000
    O263    O    0.12335   0.76236   0.04681   1.000
    O264    O    0.06975   0.73298   0.10504   1.000
    O265    O    0.62336   0.76235   0.04682   1.000
    O266    O    0.56976   0.73297   0.10505   1.000
    O267    O    0.34682   0.66406   0.06375   1.000
    O268    O    0.30883   0.15972   0.05467   1.000
    O269    O    0.37120   0.22616   0.10358   1.000
    O270    O    0.34128   0.20166   0.99933   1.000
    O271    O    0.80884   0.15971   0.05464   1.000
    O272    O    0.87122   0.22615   0.10359   1.000
    O273    O    0.84129   0.20165   0.99936   1.000
    O274    O    0.18113   0.81526   0.08829   1.000
    O275    O    0.15875   0.79838   0.00060   1.000
    O276    O    0.68113   0.81526   0.08830   1.000
    O277    O    0.65876   0.79838   0.00061   1.000
    O278    O    0.78809   0.12240   0.11180   1.000
    O279    O    0.28808   0.12239   0.11182   1.000
    O280    O    0.52829   0.17715   0.09158   1.000
    O281    O    0.02828   0.17716   0.09159   1.000
    O282    O    0.44151   0.52993   0.07985   1.000
    O283    O    0.42856   0.59715   0.08530   1.000
    O284    O    0.94151   0.52995   0.08028   1.000
    O285    O    0.92857   0.59715   0.08542   1.000
    O286    O    0.00732   0.03432   0.10042   1.000
    O287    O    0.50732   0.03432   0.10043   1.000
    O288    O    0.91093   0.66966   0.08955   1.000
    O289    O    0.89242   0.73238   0.09152   1.000
    O290    O    0.41091   0.66968   0.08983   1.000
    O291    O    0.39239   0.73242   0.09212   1.000
    O292    O    0.99254   0.69017   0.13115   1.000
    O293    O    0.49254   0.69017   0.13117   1.000
    O294    O    0.53858   0.11492   0.12155   1.000
    O295    O    0.57899   0.19643   0.15297   1.000
    O296    O    0.03857   0.11492   0.12156   1.000
    O297    O    0.07898   0.19643   0.15298   1.000
    O298    O    0.05897   0.05791   0.15974   1.000
    O299    O    0.55898   0.05791   0.15975   1.000
    O300    O    0.20517   0.83868   0.19962   1.000
    O301    O    0.70517   0.83869   0.19963   1.000
    O302    O    0.88373   0.22274   0.19248   1.000
    O303    O    0.38371   0.22275   0.19248   1.000
    O304    O    0.27748   0.09311   0.17421   1.000
    O305    O    0.32845   0.15380   0.19351   1.000
    O306    O    0.77749   0.09312   0.17420   1.000
    O307    O    0.82846   0.15380   0.19353   1.000
    O308    O    0.04409   0.80420   0.16447   1.000
    O309    O    0.06831   0.91538   0.18733   1.000
    O310    O    0.54410   0.80420   0.16448   1.000
    O311    O    0.56833   0.91539   0.18735   1.000
    O312    O    0.06609   0.67286   0.17513   1.000
    O313    O    0.04401   0.74864   0.23908   1.000
    O314    O    0.56609   0.67285   0.17513   1.000
    O315    O    0.54402   0.74864   0.23908   1.000
    O316    O    0.11701   0.37246   0.19088   1.000
    O317    O    0.12699   0.46336   0.19703   1.000
    O318    O    0.61701   0.37247   0.19090   1.000
    O319    O    0.62698   0.46337   0.19707   1.000
    O320    O    0.61884   0.61366   0.19913   1.000
    O321    O    0.11885   0.61366   0.19913   1.000
    O322    O    0.12837   0.28122   0.19535   1.000
    O323    O    0.13391   0.19541   0.22285   1.000
    O324    O    0.62837   0.28122   0.19535   1.000
    O325    O    0.63392   0.19542   0.22282   1.000
    O326    O    0.09102   0.00280   0.20300   1.000
    O327    O    0.12117   0.10673   0.22678   1.000
    O328    O    0.59103   0.00281   0.20302   1.000
    O329    O    0.62117   0.10674   0.22676   1.000
    O330    O    0.68156   0.36233   0.22183   1.000
    O331    O    0.18156   0.36233   0.22187   1.000
    O332    O    0.12618   0.95677   0.24009   1.000
    O333    O    0.62619   0.95678   0.24012   1.000
    O334    O    0.15853   0.56511   0.21448   1.000
    O335    O    0.18048   0.65226   0.22608   1.000
    O336    O    0.65852   0.56511   0.21450   1.000
    O337    O    0.68047   0.65226   0.22609   1.000
    O338    O    0.19708   0.50465   0.23139   1.000
    O339    O    0.69707   0.50466   0.23140   1.000
    O340    O    0.37804   0.19559   0.27835   1.000
    O341    O    0.87805   0.19559   0.27836   1.000
    O342    O    0.35563   0.90966   0.26925   1.000
    O343    O    0.85564   0.90971   0.26926   1.000
    O344    O    0.20536   0.76425   0.25517   1.000
    O345    O    0.70536   0.76426   0.25518   1.000
    O346    O    0.72404   0.44176   0.24360   1.000
    O347    O    0.74051   0.37353   0.24992   1.000
    O348    O    0.22404   0.44176   0.24364   1.000
    O349    O    0.24051   0.37353   0.24998   1.000
    O350    O    0.25620   0.52156   0.26010   1.000
    O351    O    0.75619   0.52157   0.26009   1.000
    O352    O    0.17959   0.89838   0.27033   1.000
    O353    O    0.67960   0.89839   0.27035   1.000
    O354    O    0.25673   0.87147   0.31318   1.000
    O355    O    0.18330   0.82838   0.33098   1.000
    O356    O    0.75674   0.87147   0.31314   1.000
    O357    O    0.68331   0.82839   0.33100   1.000
    O358    O    0.33801   0.91200   0.33257   1.000
    O359    O    0.40183   0.93735   0.33705   1.000
    O360    O    0.83802   0.91201   0.33254   1.000
    O361    O    0.90184   0.93740   0.33705   1.000
    O362    O    0.06911   0.77736   0.35116   1.000
    O363    O    0.56911   0.77737   0.35117   1.000
    O364    O    0.45863   0.95959   0.34281   1.000
    O365    O    0.95863   0.95967   0.34282   1.000
    O366    O    0.43137   0.22141   0.35941   1.000
    O367    O    0.36690   0.19070   0.36951   1.000
    O368    O    0.93138   0.22141   0.35922   1.000
    O369    O    0.86691   0.19071   0.36952   1.000
    O370    O    0.49031   0.24897   0.37059   1.000
    O371    O    0.99032   0.24897   0.37041   1.000
    O372    O    0.82132   0.91641   0.40565   1.000
    O373    O    0.32131   0.91644   0.40570   1.000
    O374    O    0.44980   0.96788   0.41677   1.000
    O375    O    0.94981   0.96792   0.41678   1.000
    O376    O    0.97405   0.24221   0.43854   1.000
    O377    O    0.47403   0.24221   0.43872   1.000
    O378    O    0.13075   0.80429   0.38997   1.000
    O379    O    0.09119   0.78795   0.43819   1.000
    O380    O    0.63075   0.80431   0.38998   1.000
    O381    O    0.59119   0.78797   0.43820   1.000
    O382    O    0.09018   0.02520   0.44435   1.000
    O383    O    0.59019   0.02535   0.44435   1.000
    O384    O    0.37712   0.19596   0.46024   1.000
    O385    O    0.87713   0.19596   0.46026   1.000
    O386    O    0.49368   0.74233   0.48110   1.000
    O387    O    0.99369   0.74233   0.48155   1.000
    O388    O    0.80922   0.92172   0.47340   1.000
    O389    O    0.86785   0.94667   0.48571   1.000
    O390    O    0.30921   0.92177   0.47341   1.000
    O391    O    0.36784   0.94670   0.48572   1.000
    O392    O    0.43252   0.97278   0.49233   1.000
    O393    O    0.50003   0.00005   0.49998   1.000
    O394    O    0.93253   0.97278   0.49233   1.000
    O395    O    0.00003   0.00007   0.49999   1.000
    O396    O    0.56754   0.02718   0.50763   1.000
    O397    O    0.63222   0.05311   0.51422   1.000
    O398    O    0.06753   0.02714   0.50764   1.000
    O399    O    0.13221   0.05302   0.51423   1.000
    O400    O    0.05280   0.77046   0.49845   1.000
    O401    O    0.12294   0.80401   0.53970   1.000
    O402    O    0.55280   0.77047   0.49801   1.000
    O403    O    0.62295   0.80403   0.53970   1.000
    O404    O    0.44726   0.22954   0.50148   1.000
    O405    O    0.50638   0.25771   0.51839   1.000
    O406    O    0.94727   0.22954   0.50151   1.000
    O407    O    0.00638   0.25771   0.51841   1.000
    O408    O    0.52602   0.75782   0.56079   1.000
    O409    O    0.19085   0.07780   0.52652   1.000
    O410    O    0.69085   0.07793   0.52652   1.000
    O411    O    0.02602   0.75782   0.56122   1.000
    O412    O    0.40887   0.21202   0.56175   1.000
    O413    O    0.90888   0.21202   0.56177   1.000
    O414    O    0.90989   0.97429   0.55556   1.000
    O415    O    0.40988   0.97435   0.55556   1.000
    O416    O    0.55025   0.03235   0.58320   1.000
    O417    O    0.05024   0.03244   0.58322   1.000
    O418    O    0.67875   0.08347   0.59425   1.000
    O419    O    0.17875   0.08344   0.59426   1.000
    O420    O    0.13315   0.80929   0.63044   1.000
    O421    O    0.63316   0.80930   0.63045   1.000
    O422    O    0.36931   0.19567   0.60997   1.000
    O423    O    0.31676   0.17157   0.66896   1.000
    O424    O    0.86932   0.19567   0.60999   1.000
    O425    O    0.81677   0.17156   0.66897   1.000
    O426    O    0.43096   0.22262   0.64878   1.000
    O427    O    0.93097   0.22262   0.64880   1.000
    O428    O    0.00973   0.75110   0.62936   1.000
    O429    O    0.06867   0.77863   0.64054   1.000
    O430    O    0.50974   0.75109   0.62937   1.000
    O431    O    0.56868   0.77863   0.64055   1.000
    O432    O    0.54142   0.04090   0.65719   1.000
    O433    O    0.59822   0.06297   0.66294   1.000
    O434    O    0.04141   0.04113   0.65720   1.000
    O435    O    0.09821   0.06312   0.66295   1.000
    O436    O    0.16203   0.08825   0.66741   1.000
    O437    O    0.24332   0.12853   0.68678   1.000
    O438    O    0.66204   0.08815   0.66740   1.000
    O439    O    0.74333   0.12850   0.68678   1.000
    O440    O    0.12200   0.80444   0.72161   1.000
    O441    O    0.62201   0.80444   0.72162   1.000
    O442    O    0.45606   0.25137   0.76087   1.000
    O443    O    0.95606   0.25137   0.76088   1.000
    O444    O    0.64442   0.09072   0.73075   1.000
    O445    O    0.14441   0.09092   0.73076   1.000
    O446    O    0.74387   0.47841   0.73986   1.000
    O447    O    0.24387   0.47842   0.73987   1.000
    O448    O    0.32047   0.10159   0.72963   1.000
    O449    O    0.29472   0.23571   0.74476   1.000
    O450    O    0.29488   0.16130   0.80028   1.000
    O451    O    0.82048   0.10158   0.72966   1.000
    O452    O    0.79472   0.23570   0.74478   1.000
    O453    O    0.79488   0.16129   0.80034   1.000
    O454    O    0.37388   0.04323   0.75989   1.000
    O455    O    0.87390   0.04323   0.75992   1.000
    O456    O    0.75955   0.62646   0.75003   1.000
    O457    O    0.25955   0.62647   0.75004   1.000
    O458    O    0.37889   0.89328   0.77323   1.000
    O459    O    0.36614   0.80460   0.77712   1.000
    O460    O    0.87890   0.89328   0.77325   1.000
    O461    O    0.86615   0.80459   0.77717   1.000
    O462    O    0.77602   0.55822   0.75634   1.000
    O463    O    0.80299   0.49533   0.76855   1.000
    O464    O    0.27602   0.55824   0.75634   1.000
    O465    O    0.30299   0.49534   0.76853   1.000
    O466    O    0.31850   0.63767   0.77811   1.000
    O467    O    0.81850   0.63766   0.77812   1.000
    O468    O    0.31961   0.34773   0.77384   1.000
    O469    O    0.81961   0.34772   0.77386   1.000
    O470    O    0.17159   0.84623   0.80644   1.000
    O471    O    0.11632   0.77730   0.80748   1.000
    O472    O    0.67160   0.84624   0.80645   1.000
    O473    O    0.61633   0.77729   0.80749   1.000
    O474    O    0.34155   0.43488   0.78541   1.000
    O475    O    0.37308   0.53662   0.80285   1.000
    O476    O    0.84154   0.43487   0.78544   1.000
    O477    O    0.87308   0.53662   0.80287   1.000
    O478    O    0.38124   0.38634   0.80080   1.000
    O479    O    0.88123   0.38633   0.80080   1.000
    O480    O    0.40904   0.99721   0.79700   1.000
    O481    O    0.43175   0.08463   0.81266   1.000
    O482    O    0.90905   0.99720   0.79702   1.000
    O483    O    0.93176   0.08462   0.81267   1.000
    O484    O    0.37169   0.71879   0.80460   1.000
    O485    O    0.38306   0.62753   0.80905   1.000
    O486    O    0.87169   0.71878   0.80465   1.000
    O487    O    0.88305   0.62752   0.80906   1.000
    O488    O    0.44109   0.94210   0.84026   1.000
    O489    O    0.94110   0.94208   0.84027   1.000
    O490    O    0.42107   0.80357   0.84699   1.000
    O491    O    0.92107   0.80356   0.84699   1.000
    O492    O    0.22255   0.90692   0.82573   1.000
    O493    O    0.72256   0.90693   0.82574   1.000
    O494    O    0.43399   0.32716   0.82482   1.000
    O495    O    0.93399   0.32715   0.82483   1.000
    O496    O    0.45598   0.19582   0.83550   1.000
    O497    O    0.50754   0.30985   0.86881   1.000
    O498    O    0.43030   0.26706   0.89491   1.000
    O499    O    0.95599   0.19582   0.83551   1.000
    O500    O    0.00753   0.30985   0.86884   1.000
    O501    O    0.93031   0.26704   0.89491   1.000
    O502    O    0.21195   0.87764   0.88813   1.000
    O503    O    0.71196   0.87765   0.88814   1.000
    O504    O    0.12883   0.77389   0.89637   1.000
    O505    O    0.62884   0.77388   0.89638   1.000
    O506    O    0.31891   0.18476   0.91160   1.000
    O507    O    0.81891   0.18476   0.91168   1.000
    O508    O    0.46148   0.88509   0.87844   1.000
    O509    O    0.49275   0.96568   0.89958   1.000
    O510    O    0.96149   0.88507   0.87840   1.000
    O511    O    0.99275   0.96566   0.89955   1.000
    O512    O    0.97178   0.82282   0.90837   1.000
    O513    O    0.47177   0.82284   0.90841   1.000
    O514    O    0.60766   0.26765   0.90850   1.000
    O515    O    0.10763   0.26769   0.90912   1.000
    O516    O    0.58915   0.33036   0.91041   1.000
    O517    O    0.57152   0.40287   0.91452   1.000
    O518    O    0.08913   0.33038   0.91067   1.000
    O519    O    0.07151   0.40286   0.91439   1.000
    O520    O    0.05858   0.47004   0.91915   1.000
    O521    O    0.55857   0.47006   0.91959   1.000
    O522    O    0.65323   0.33600   0.93662   1.000
    O523    O    0.15321   0.33604   0.93712   1.000
    O524    O    0.11734   0.48341   0.94499   1.000
    O525    O    0.61735   0.48343   0.94529   1.000
    O526    O    0.19120   0.84032   0.94529   1.000
    O527    O    0.24305   0.89906   0.96892   1.000
    O528    O    0.69121   0.84033   0.94530   1.000
    O529    O    0.74305   0.89907   0.96893   1.000
    O530    O    0.37668   0.23768   0.95312   1.000
    O531    O    0.87669   0.23766   0.95314   1.000
    O532    O    0.71023   0.34277   0.95962   1.000
    O533    O    0.70052   0.41628   0.96753   1.000
    O534    O    0.21019   0.34282   0.96038   1.000
    O535    O    0.20049   0.41630   0.96787   1.000
    O536    O    0.18226   0.49119   0.97202   1.000
    O537    O    0.15873   0.55377   0.97284   1.000
    O538    O    0.68227   0.49120   0.97210   1.000
    O539    O    0.65873   0.55379   0.97335   1.000
    O540    O    0.37547   0.21470   0.78166   1.000
    O541    O    0.87547   0.21469   0.78168   1.000
    O542    O    0.12460   0.78528   0.21828   1.000
    O543    O    0.62460   0.78529   0.21829   1.000
loop_
    _geom_bond_atom_site_label_1
    _geom_bond_atom_site_label_2
    _geom_bond_distance
    _geom_bond_site_symmetry_2
    _ccdc_geom_bond_type
    C30    O248      0.54334      .   S
    C122   O248      0.54334      .   S
    C31    O249      0.54309      .   S
    C123   O249      0.54309      .   S
    C48    O250      0.54323      .   S
    C154   O250      0.54323      .   S
    C49    O251      0.54323      .   S
    C155   O251      0.54323      .   S
    C147   O252      0.70256      .   S
    C155   O252      0.70256      .   S
    C147   O253      0.70349      .   S
    C157   O253      0.70349      .   S
    C147   O254      0.74315  1_554   S
    C87    O254      0.74315      .   S
    C146   O255      0.70256      .   S
    C154   O255      0.70256      .   S
    C146   O256      0.70361      .   S
    C156   O256      0.70361      .   S
    C146   O257      0.74315      .   S
    C86    O257      0.74315  1_556   S
    C154   O258      0.69393      .   S
    C158   O258      0.69393      .   S
    C155   O259      0.69392      .   S
    C159   O259      0.69392      .   S
    C51    O260      0.54368      .   S
    C157   O260      0.54368      .   S
    C50    O261      0.54356      .   S
    C156   O261      0.54356      .   S
    C157   O262      0.69429      .   S
    C161   O262      0.69429      .   S
    C246   O263      0.63945      .   S
    C170   O263      0.63945      .   S
    C246   O264      1.05590      .   S
    C4     O264      1.05590      .   S
    C247   O265      0.63948      .   S
    C171   O265      0.63948      .   S
    C247   O266      1.05585      .   S
    C5     O266      1.05585      .   S
    C156   O267      0.69433      .   S
    C160   O267      0.69433      .   S
    C118   O268      0.69314      .   S
    C122   O268      0.69314      .   S
    C118   O269      0.86683      .   S
    C196   O269      0.86683      .   S
    C118   O270      0.73881  1_554   S
    C110   O270      0.73881      .   S
    C119   O271      0.69283      .   S
    C123   O271      0.69283      .   S
    C119   O272      0.86681      .   S
    C197   O272      0.86681      .   S
    C119   O273      0.73859  1_554   S
    C111   O273      0.73859      .   S
    C170   O274      0.63926      .   S
    C240   O274      0.63926      .   S
    C170   O275      0.73856      .   S
    C178   O275      0.73856  1_556   S
    C171   O276      0.63925      .   S
    C241   O276      0.63925      .   S
    C171   O277      0.73856      .   S
    C179   O277      0.73856  1_556   S
    C123   O278      0.70525      .   S
    C113   O278      0.70525      .   S
    C122   O279      0.70463      .   S
    C112   O279      0.70463      .   S
    C43    O280      0.54408      .   S
    C143   O280      0.54408      .   S
    C42    O281      0.54425      .   S
    C142   O281      0.54425      .   S
    C158   O282      0.54432      .   S
    C52    O282      0.54432      .   S
    C158   O283      0.67534      .   S
    C212   O283      0.67534      .   S
    C159   O284      0.54433      .   S
    C53    O284      0.54433      .   S
    C159   O285      0.67535      .   S
    C213   O285      0.67535      .   S
    C47    O286      0.54322  1_655   S
    C152   O286      0.54322      .   S
    C46    O287      0.54331      .   S
    C153   O287      0.54331      .   S
    C161   O288      0.67519      .   S
    C213   O288      0.67519      .   S
    C161   O289      0.54480      .   S
    C55    O289      0.54480      .   S
    C160   O290      0.67516      .   S
    C212   O290      0.67516      .   S
    C160   O291      0.54483      .   S
    C54    O291      0.54483      .   S
    C213   O292      1.03610      .   S
    C4     O292      1.03610  1_455   S
    C212   O293      1.03620      .   S
    C5     O293      1.03620      .   S
    C143   O294      0.70481      .   S
    C153   O294      0.70481      .   S
    C143   O295      0.69701      .   S
    C133   O295      0.69701      .   S
    C142   O296      0.70472      .   S
    C152   O296      0.70472      .   S
    C142   O297      0.69691      .   S
    C132   O297      0.69691      .   S
    C152   O298      0.69309      .   S
    C148   O298      0.69309      .   S
    C153   O299      0.69307      .   S
    C149   O299      0.69307      .   S
    C240   O300      1.04059      .   S
    C6     O300      1.04059      .   S
    C241   O301      1.04058      .   S
    C7     O301      1.04058      .   S
    C197   O302      0.86831      .   S
    C103   O302      0.86831      .   S
    C196   O303      0.86830      .   S
    C102   O303      0.86830      .   S
    C112   O304      0.54426      .   S
    C26    O304      0.54426      .   S
    C112   O305      0.69704      .   S
    C102   O305      0.69704      .   S
    C113   O306      0.54393      .   S
    C27    O306      0.54393      .   S
    C113   O307      0.69703      .   S
    C103   O307      0.69703      .   S
    C232   O308      1.03931      .   S
    C4     O308      1.03931      .   S
    C232   O309      0.63935      .   S
    C140   O309      0.63935      .   S
    C233   O310      1.03927      .   S
    C5     O310      1.03927      .   S
    C233   O311      0.63938      .   S
    C141   O311      0.63938      .   S
    C4     O312      1.02865      .   S
    C234   O312      1.02865      .   S
    C4     O313      1.04593      .   S
    C244   O313      1.04593      .   S
    C5     O314      1.02860      .   S
    C235   O314      1.02860      .   S
    C5     O315      1.04602      .   S
    C245   O315      1.04602      .   S
    C202   O316      0.86795      .   S
    C150   O316      0.86795      .   S
    C202   O317      0.86428      .   S
    C134   O317      0.86428      .   S
    C203   O318      0.86795      .   S
    C151   O318      0.86795      .   S
    C203   O319      0.86428      .   S
    C135   O319      0.86428      .   S
    C235   O320      0.64093      .   S
    C137   O320      0.64093      .   S
    C234   O321      0.64092      .   S
    C136   O321      0.64092      .   S
    C132   O322      0.72284      .   S
    C150   O322      0.72284      .   S
    C132   O323      0.86836      .   S
    C200   O323      0.86836      .   S
    C133   O324      0.72284      .   S
    C151   O324      0.72284      .   S
    C133   O325      0.86800      .   S
    C201   O325      0.86800      .   S
    C148   O326      0.73785      .   S
    C140   O326      0.73785  1_565   S
    C148   O327      0.86678      .   S
    C200   O327      0.86678      .   S
    C149   O328      0.73791      .   S
    C141   O328      0.73791  1_565   S
    C149   O329      0.86670      .   S
    C201   O329      0.86670      .   S
    C151   O330      0.69714      .   S
    C139   O330      0.69714      .   S
    C150   O331      0.69715      .   S
    C138   O331      0.69715      .   S
    C140   O332      0.63945      .   S
    C238   O332      0.63945      .   S
    C141   O333      0.63938      .   S
    C239   O333      0.63938      .   S
    C136   O334      0.73826      .   S
    C134   O334      0.73826      .   S
    C136   O335      0.63544      .   S
    C236   O335      0.63544      .   S
    C137   O336      0.73826      .   S
    C135   O336      0.73826      .   S
    C137   O337      0.63544      .   S
    C237   O337      0.63544      .   S
    C134   O338      0.69271      .   S
    C144   O338      0.69271      .   S
    C135   O339      0.69270      .   S
    C145   O339      0.69270      .   S
    C102   O340      0.72285      .   S
    C120   O340      0.72285      .   S
    C103   O341      0.72284      .   S
    C121   O341      0.72284      .   S
    C70    O342      0.54484      .   S
    C190   O342      0.54484      .   S
    C71    O343      0.54484      .   S
    C191   O343      0.54484      .   S
    C236   O344      1.04571      .   S
    C6     O344      1.04571      .   S
    C237   O345      1.04571      .   S
    C7     O345      1.04571      .   S
    C139   O346      0.70542      .   S
    C145   O346      0.70542      .   S
    C139   O347      0.54483      .   S
    C41    O347      0.54483      .   S
    C138   O348      0.70551      .   S
    C144   O348      0.70551      .   S
    C138   O349      0.54474      .   S
    C40    O349      0.54474      .   S
    C144   O350      0.54390      .   S
    C44    O350      0.54390      .   S
    C145   O351      0.54390      .   S
    C45    O351      0.54390      .   S
    C238   O352      1.05496      .   S
    C6     O352      1.05496      .   S
    C239   O353      1.05492      .   S
    C7     O353      1.05492      .   S
    C6     O354      1.03418      .   S
    C214   O354      1.03418      .   S
    C6     O355      1.02738      .   S
    C242   O355      1.02738      .   S
    C7     O356      1.03405      .   S
    C215   O356      1.03405      .   S
    C7     O357      1.02741      .   S
    C243   O357      1.02741      .   S
    C190   O358      0.67513      .   S
    C214   O358      0.67513      .   S
    C190   O359      0.69412      .   S
    C186   O359      0.69412      .   S
    C191   O360      0.67475      .   S
    C215   O360      0.67475      .   S
    C191   O361      0.69412      .   S
    C187   O361      0.69412      .   S
    C244   O362      0.63556      .   S
    C166   O362      0.63556      .   S
    C245   O363      0.63555      .   S
    C167   O363      0.63555      .   S
    C66    O364      0.54367      .   S
    C186   O364      0.54367      .   S
    C67    O365      0.54368      .   S
    C187   O365      0.54368      .   S
    C120   O366      0.69728      .   S
    C108   O366      0.69728      .   S
    C120   O367      0.86781      .   S
    C198   O367      0.86781      .   S
    C121   O368      0.69659      .   S
    C109   O368      0.69659      .   S
    C121   O369      0.86784      .   S
    C199   O369      0.86784      .   S
    C25    O370      0.54476      .   S
    C108   O370      0.54476      .   S
    C24    O371      0.54270  1_455   S
    C109   O371      0.54270      .   S
    C215   O372      0.67553      .   S
    C189   O372      0.67553      .   S
    C214   O373      0.67520      .   S
    C188   O373      0.67520      .   S
    C186   O374      0.70343      .   S
    C176   O374      0.70343      .   S
    C187   O375      0.70343      .   S
    C177   O375      0.70343      .   S
    C109   O376      0.70823      .   S
    C115   O376      0.70823      .   S
    C108   O377      0.70541      .   S
    C114   O377      0.70541      .   S
    C166   O378      0.64098      .   S
    C242   O378      0.64098      .   S
    C166   O379      0.73806      .   S
    C164   O379      0.73806      .   S
    C167   O380      0.64097      .   S
    C243   O380      0.64097      .   S
    C167   O381      0.73805      .   S
    C165   O381      0.73805      .   S
    C32    O382      0.54310      .   S
    C124   O382      0.54310      .   S
    C33    O383      0.54307      .   S
    C125   O383      0.54307      .   S
    C198   O384      0.86421      .   S
    C104   O384      0.86421      .   S
    C199   O385      0.86433      .   S
    C105   O385      0.86433      .   S
    C60    O386      0.54120      .   S
    C175   O386      0.54120      .   S
    C61    O387      0.54380      .   S
    C174   O387      0.54380  1_455   S
    C189   O388      0.54444      .   S
    C69    O388      0.54444      .   S
    C189   O389      0.69386      .   S
    C185   O389      0.69386      .   S
    C188   O390      0.54433      .   S
    C68    O390      0.54433      .   S
    C188   O391      0.69382      .   S
    C184   O391      0.69382      .   S
    C176   O392      0.70240      .   S
    C184   O392      0.70240      .   S
    C176   O393      0.74283  1_565   S
    C117   O393      0.74283      .   S
    C177   O394      0.70237      .   S
    C185   O394      0.70237      .   S
    C177   O395      0.74270  1_665   S
    C116   O395      0.74270      .   S
    C125   O396      0.70236      .   S
    C117   O396      0.70236      .   S
    C125   O397      0.69375      .   S
    C129   O397      0.69375      .   S
    C124   O398      0.70237      .   S
    C116   O398      0.70237      .   S
    C124   O399      0.69381      .   S
    C128   O399      0.69381      .   S
    C164   O400      0.69269      .   S
    C174   O400      0.69269      .   S
    C164   O401      0.86431      .   S
    C206   O401      0.86431      .   S
    C165   O402      0.68941      .   S
    C175   O402      0.68941      .   S
    C165   O403      0.86431      .   S
    C207   O403      0.86431      .   S
    C114   O404      0.69260      .   S
    C104   O404      0.69260      .   S
    C114   O405      0.54392      .   S
    C29    O405      0.54392      .   S
    C115   O406      0.69269      .   S
    C105   O406      0.69269      .   S
    C115   O407      0.54380  1_655   S
    C28    O407      0.54380      .   S
    C175   O408      0.71174      .   S
    C169   O408      0.71174      .   S
    C36    O409      0.54435      .   S
    C128   O409      0.54435      .   S
    C37    O410      0.54414      .   S
    C129   O410      0.54414      .   S
    C174   O411      0.70545      .   S
    C168   O411      0.70545      .   S
    C104   O412      0.73827      .   S
    C106   O412      0.73827      .   S
    C105   O413      0.73813      .   S
    C107   O413      0.73813      .   S
    C185   O414      0.54253      .   S
    C65    O414      0.54253      .   S
    C184   O415      0.54252      .   S
    C64    O415      0.54252      .   S
    C117   O416      0.70346      .   S
    C127   O416      0.70346      .   S
    C116   O417      0.70340      .   S
    C126   O417      0.70340      .   S
    C129   O418      0.67544      .   S
    C211   O418      0.67544      .   S
    C128   O419      0.67518      .   S
    C210   O419      0.67518      .   S
    C206   O420      0.86782      .   S
    C180   O420      0.86782      .   S
    C207   O421      0.86781      .   S
    C181   O421      0.86781      .   S
    C226   O422      0.64096      .   S
    C106   O422      0.64096      .   S
    C226   O423      1.02738      .   S
    C2     O423      1.02738      .   S
    C227   O424      0.64095      .   S
    C107   O424      0.64095      .   S
    C227   O425      1.02741      .   S
    C3     O425      1.02741      .   S
    C106   O426      0.63556      .   S
    C228   O426      0.63556      .   S
    C107   O427      0.63551      .   S
    C229   O427      0.63551      .   S
    C168   O428      0.54463      .   S
    C57    O428      0.54463  1_655   S
    C168   O429      0.69727      .   S
    C180   O429      0.69727      .   S
    C169   O430      0.54475      .   S
    C56    O430      0.54475      .   S
    C169   O431      0.69727      .   S
    C181   O431      0.69727      .   S
    C127   O432      0.54368      .   S
    C35    O432      0.54368      .   S
    C127   O433      0.69414      .   S
    C131   O433      0.69414      .   S
    C126   O434      0.54370      .   S
    C34    O434      0.54370      .   S
    C126   O435      0.69414      .   S
    C130   O435      0.69414      .   S
    C210   O436      0.67514      .   S
    C130   O436      0.67514      .   S
    C210   O437      1.03414      .   S
    C2     O437      1.03414      .   S
    C211   O438      0.67512      .   S
    C131   O438      0.67512      .   S
    C211   O439      1.03415      .   S
    C3     O439      1.03415      .   S
    C180   O440      0.72289      .   S
    C162   O440      0.72289      .   S
    C181   O441      0.72290      .   S
    C163   O441      0.72290      .   S
    C228   O442      1.04601      .   S
    C0     O442      1.04601      .   S
    C229   O443      1.04600      .   S
    C1     O443      1.04600      .   S
    C131   O444      0.54482      .   S
    C39    O444      0.54482      .   S
    C130   O445      0.54483      .   S
    C38    O445      0.54483      .   S
    C13    O446      0.54390      .   S
    C85    O446      0.54390      .   S
    C12    O447      0.54391      .   S
    C84    O447      0.54391      .   S
    C2     O448      1.05470      .   S
    C222   O448      1.05470      .   S
    C2     O449      1.04584      .   S
    C220   O449      1.04584      .   S
    C2     O450      1.03996      .   S
    C224   O450      1.03996      .   S
    C3     O451      1.05465      .   S
    C223   O451      1.05465      .   S
    C3     O452      1.04590      .   S
    C221   O452      1.04590      .   S
    C3     O453      1.04067      .   S
    C225   O453      1.04067      .   S
    C222   O454      0.63938      .   S
    C80    O454      0.63938      .   S
    C223   O455      0.63935      .   S
    C81    O455      0.63935      .   S
    C9     O456      0.54476      .   S
    C79    O456      0.54476      .   S
    C8     O457      0.54474      .   S
    C78    O457      0.54474      .   S
    C192   O458      0.86680      .   S
    C88    O458      0.86680      .   S
    C192   O459      0.86810      .   S
    C72    O459      0.86810      .   S
    C193   O460      0.86679      .   S
    C89    O460      0.86679      .   S
    C193   O461      0.86835      .   S
    C73    O461      0.86835      .   S
    C85    O462      0.70551      .   S
    C79    O462      0.70551      .   S
    C85    O463      0.69270      .   S
    C75    O463      0.69270      .   S
    C84    O464      0.70552      .   S
    C78    O464      0.70552      .   S
    C84    O465      0.69268      .   S
    C74    O465      0.69268      .   S
    C78    O466      0.69716      .   S
    C90    O466      0.69716      .   S
    C79    O467      0.69714      .   S
    C91    O467      0.69714      .   S
    C220   O468      0.63542      .   S
    C76    O468      0.63542      .   S
    C221   O469      0.63542      .   S
    C77    O469      0.63542      .   S
    C162   O470      0.69702      .   S
    C172   O470      0.69702      .   S
    C162   O471      0.86825      .   S
    C204   O471      0.86825      .   S
    C163   O472      0.69701      .   S
    C173   O472      0.69701      .   S
    C163   O473      0.86829      .   S
    C205   O473      0.86829      .   S
    C74    O474      0.73827      .   S
    C76    O474      0.73827      .   S
    C74    O475      0.86427      .   S
    C194   O475      0.86427      .   S
    C75    O476      0.73827      .   S
    C77    O476      0.73827      .   S
    C75    O477      0.86431      .   S
    C195   O477      0.86431      .   S
    C76    O478      0.64095      .   S
    C218   O478      0.64095      .   S
    C77    O479      0.64094      .   S
    C219   O479      0.64094      .   S
    C80    O480      0.73791  1_545   S
    C88    O480      0.73791      .   S
    C80    O481      0.63938      .   S
    C216   O481      0.63938      .   S
    C81    O482      0.73793  1_545   S
    C89    O482      0.73793      .   S
    C81    O483      0.63939      .   S
    C217   O483      0.63939      .   S
    C90    O484      0.72292      .   S
    C72    O484      0.72292      .   S
    C90    O485      0.86795      .   S
    C194   O485      0.86795      .   S
    C91    O486      0.72284      .   S
    C73    O486      0.72284      .   S
    C91    O487      0.86789      .   S
    C195   O487      0.86789      .   S
    C88    O488      0.69296      .   S
    C92    O488      0.69296      .   S
    C89    O489      0.69291      .   S
    C93    O489      0.69291      .   S
    C72    O490      0.69708      .   S
    C82    O490      0.69708      .   S
    C73    O491      0.69671      .   S
    C83    O491      0.69671      .   S
    C58    O492      0.54424      .   S
    C172   O492      0.54424      .   S
    C59    O493      0.54426      .   S
    C173   O493      0.54426      .   S
    C218   O494      1.02857      .   S
    C0     O494      1.02857      .   S
    C219   O495      1.02861      .   S
    C1     O495      1.02861      .   S
    C0     O496      1.03931      .   S
    C216   O496      1.03931      .   S
    C0     O497      1.03622      .   S
    C209   O497      1.03622      .   S
    C0     O498      1.05602      .   S
    C230   O498      1.05602      .   S
    C1     O499      1.03936      .   S
    C217   O499      1.03936      .   S
    C1     O500      1.03611  1_655   S
    C208   O500      1.03611      .   S
    C1     O501      1.05596      .   S
    C231   O501      1.05596      .   S
    C172   O502      0.70469      .   S
    C182   O502      0.70469      .   S
    C173   O503      0.70469      .   S
    C183   O503      0.70469      .   S
    C204   O504      0.86685      .   S
    C178   O504      0.86685      .   S
    C205   O505      0.86683      .   S
    C179   O505      0.86683      .   S
    C224   O506      0.63949      .   S
    C110   O506      0.63949      .   S
    C225   O507      0.63923      .   S
    C111   O507      0.63923      .   S
    C92    O508      0.70479      .   S
    C82    O508      0.70479      .   S
    C92    O509      0.54335      .   S
    C15    O509      0.54335      .   S
    C93    O510      0.70461      .   S
    C83    O510      0.70461      .   S
    C93    O511      0.54316      .   S
    C14    O511      0.54316  1_455   S
    C83    O512      0.54463      .   S
    C11    O512      0.54463      .   S
    C82    O513      0.54422      .   S
    C10    O513      0.54422      .   S
    C23    O514      0.54484      .   S
    C101   O514      0.54484      .   S
    C22    O515      0.54484      .   S
    C100   O515      0.54484      .   S
    C209   O516      0.67516      .   S
    C101   O516      0.67516      .   S
    C209   O517      0.67535      .   S
    C99    O517      0.67535      .   S
    C208   O518      0.67515      .   S
    C100   O518      0.67515      .   S
    C208   O519      0.67536      .   S
    C98    O519      0.67536      .   S
    C20    O520      0.54433      .   S
    C98    O520      0.54433      .   S
    C21    O521      0.54432      .   S
    C99    O521      0.54432      .   S
    C101   O522      0.69430      .   S
    C97    O522      0.69430      .   S
    C100   O523      0.69430      .   S
    C96    O523      0.69430      .   S
    C98    O524      0.69391      .   S
    C94    O524      0.69391      .   S
    C99    O525      0.69392      .   S
    C95    O525      0.69392      .   S
    C182   O526      0.69313      .   S
    C178   O526      0.69313      .   S
    C182   O527      0.54332      .   S
    C62    O527      0.54332      .   S
    C183   O528      0.69314      .   S
    C179   O528      0.69314      .   S
    C183   O529      0.54332      .   S
    C63    O529      0.54332      .   S
    C110   O530      0.63941      .   S
    C230   O530      0.63941      .   S
    C111   O531      0.63947      .   S
    C231   O531      0.63947      .   S
    C97    O532      0.54367      .   S
    C19    O532      0.54367      .   S
    C97    O533      0.70350      .   S
    C87    O533      0.70350      .   S
    C96    O534      0.54368      .   S
    C18    O534      0.54368      .   S
    C96    O535      0.70349      .   S
    C86    O535      0.70349      .   S
    C94    O536      0.70256      .   S
    C86    O536      0.70256      .   S
    C94    O537      0.54323      .   S
    C16    O537      0.54323      .   S
    C95    O538      0.70255      .   S
    C87    O538      0.70255      .   S
    C95    O539      0.54323      .   S
    C17    O539      0.54323      .   S
    C0     O540      1.46503      .   S
    C2     O540      1.46503      .   S
    C1     O541      1.46507      .   S
    C3     O541      1.46507      .   S
    C4     O542      1.46485      .   S
    C6     O542      1.46485      .   S
    C5     O543      1.46488      .   S
    C7     O543      1.46488      .   S
