# CIF file generated by openbabel 2.4.90, see http://openbabel.sf.net
data_I
_chemical_name_common ''
_cell_length_a 12.91
_cell_length_b 18.1
_cell_length_c 26.523
_cell_angle_alpha 90.001
_cell_angle_beta 89.994
_cell_angle_gamma 90.063
_space_group_name_H-M_alt 'P 1'
_space_group_name_Hall 'P 1'
loop_
    _symmetry_equiv_pos_as_xyz
    x,y,z
loop_
    _atom_site_label
    _atom_site_type_symbol
    _atom_site_fract_x
    _atom_site_fract_y
    _atom_site_fract_z
    _atom_site_occupancy
    C0      C    0.37528   0.37095   0.75000   1.000
    C1      C    0.37527   0.87095   0.75000   1.000
    C2      C    0.87419   0.37096   0.75002   1.000
    C3      C    0.87420   0.87095   0.75002   1.000
    C4      C    0.12597   0.12903   0.75000   1.000
    C5      C    0.12596   0.62903   0.74999   1.000
    C6      C    0.62503   0.12908   0.75003   1.000
    C7      C    0.62502   0.62908   0.75003   1.000
    C8      C    0.12593   0.12903   0.25000   1.000
    C9      C    0.62497   0.12912   0.24998   1.000
    C10     C    0.37523   0.87099   0.25000   1.000
    C11     C    0.87414   0.87095   0.25000   1.000
    O12     O    0.41792   0.40333   0.71280   1.000
    O13     O    0.41790   0.90332   0.71279   1.000
    O14     O    0.91630   0.40342   0.71272   1.000
    O15     O    0.91630   0.90342   0.71272   1.000
    O16     O    0.16828   0.09675   0.78730   1.000
    O17     O    0.16828   0.59674   0.78730   1.000
    O18     O    0.66737   0.09665   0.78725   1.000
    O19     O    0.66736   0.59664   0.78725   1.000
    O20     O    0.33260   0.40331   0.78718   1.000
    O21     O    0.33260   0.90331   0.78718   1.000
    O22     O    0.83204   0.40324   0.78738   1.000
    O23     O    0.83202   0.90324   0.78737   1.000
    O24     O    0.08369   0.09657   0.71274   1.000
    O25     O    0.08368   0.59657   0.71274   1.000
    O26     O    0.58266   0.09677   0.71272   1.000
    O27     O    0.58267   0.59677   0.71270   1.000
    O28     O    0.08368   0.09657   0.28726   1.000
    O29     O    0.58259   0.09679   0.28729   1.000
    O30     O    0.33260   0.90334   0.21281   1.000
    O31     O    0.83200   0.90324   0.21260   1.000
    O32     O    0.16824   0.09675   0.21268   1.000
    O33     O    0.66737   0.09667   0.21270   1.000
    O34     O    0.41785   0.90334   0.28721   1.000
    O35     O    0.91630   0.90341   0.28728   1.000
    O36     O    0.62564   0.94501   0.70000   1.000
loop_
    _geom_bond_atom_site_label_1
    _geom_bond_atom_site_label_2
    _geom_bond_distance
    _geom_bond_site_symmetry_2
    _ccdc_geom_bond_type
    O31    C11       1.27370      .   S
    O32    C8        1.27277      .   S
    O33    C9        1.27392      .   S
    O30    C10       1.27262      .   S
    C9     O29       1.27293      .   S
    C8     O28       1.27221      .   S
    C10    O34       1.27242      .   S
    C11    O35       1.27222      .   S
    O27    C7        1.27307      .   S
    O14    C2        1.27231      .   S
    O15    C3        1.27225      .   S
    O26    C6        1.27275      .   S
    O24    C4        1.27243      .   S
    O25    C5        1.27223      .   S
    O13    C1        1.27260      .   S
    O12    C0        1.27246      .   S
    C5     O17       1.27277      .   S
    C0     O20       1.27267      .   S
    C1     O21       1.27262      .   S
    C4     O16       1.27253      .   S
    C3     O23       1.27273      .   S
    C2     O22       1.27282      .   S
    C6     O18       1.27234      .   S
    C7     O19       1.27235      .   S
