# CIF file generated by openbabel 2.4.90, see http://openbabel.sf.net
data_I
_chemical_name_common ''
_cell_length_a 12.91
_cell_length_b 18.1
_cell_length_c 26.523
_cell_angle_alpha 90.001
_cell_angle_beta 89.994
_cell_angle_gamma 90.063
_space_group_name_H-M_alt 'P 1'
_space_group_name_Hall 'P 1'
loop_
    _symmetry_equiv_pos_as_xyz
    x,y,z
loop_
    _atom_site_label
    _atom_site_type_symbol
    _atom_site_fract_x
    _atom_site_fract_y
    _atom_site_fract_z
    _atom_site_occupancy
    C0      C    0.37497   0.37087   0.24998   1.000
    C1      C    0.37528   0.37095   0.75000   1.000
    C2      C    0.37527   0.87095   0.75000   1.000
    C3      C    0.87419   0.37096   0.75002   1.000
    C4      C    0.87420   0.87095   0.75002   1.000
    C5      C    0.12597   0.12903   0.75000   1.000
    C6      C    0.12596   0.62903   0.74999   1.000
    C7      C    0.62503   0.12908   0.75003   1.000
    C8      C    0.62502   0.62908   0.75003   1.000
    C9      C    0.12593   0.12903   0.25000   1.000
    C10     C    0.12580   0.62903   0.24998   1.000
    C11     C    0.62497   0.12912   0.24998   1.000
    C12     C    0.37523   0.87099   0.25000   1.000
    C13     C    0.87402   0.37096   0.25000   1.000
    C14     C    0.87414   0.87095   0.25000   1.000
