# CIF file generated by openbabel 2.4.90, see http://openbabel.sf.net
data_I
_chemical_name_common ''
_cell_length_a 12.91
_cell_length_b 18.1
_cell_length_c 26.523
_cell_angle_alpha 90.001
_cell_angle_beta 89.994
_cell_angle_gamma 90.063
_space_group_name_H-M_alt 'P 1'
_space_group_name_Hall 'P 1'
loop_
    _symmetry_equiv_pos_as_xyz
    x,y,z
loop_
    _atom_site_label
    _atom_site_type_symbol
    _atom_site_fract_x
    _atom_site_fract_y
    _atom_site_fract_z
    _atom_site_occupancy
    Zr0     Zr   0.00003   0.99999   0.71420   1.000
    Zr1     Zr   0.00003   0.49998   0.71420   1.000
    Zr2     Zr   0.50107   0.99993   0.71431   1.000
    Zr3     Zr   0.50109   0.49993   0.71431   1.000
    Zr4     Zr   0.24965   0.99991   0.78568   1.000
    Zr5     Zr   0.24965   0.49990   0.78567   1.000
    Zr6     Zr   0.75067   0.00011   0.78577   1.000
    Zr7     Zr   0.75067   0.50011   0.78578   1.000
    Zr8     Zr   0.00001   0.99999   0.28578   1.000
    Zr9     Zr   0.99997   0.50000   0.28578   1.000
    Zr10    Zr   0.50103   0.99995   0.28569   1.000
    Zr11    Zr   0.49882   0.50004   0.28569   1.000
    Zr12    Zr   0.24961   0.99992   0.21431   1.000
    Zr13    Zr   0.24933   0.49987   0.21423   1.000
    Zr14    Zr   0.75065   0.00012   0.21426   1.000
    Zr15    Zr   0.75034   0.50007   0.21433   1.000
    Zr16    Zr   0.37528   0.37095   0.75000   1.000
    Zr17    Zr   0.37527   0.87095   0.75000   1.000
    Zr18    Zr   0.87419   0.37096   0.75002   1.000
    Zr19    Zr   0.87420   0.87095   0.75002   1.000
    Zr20    Zr   0.12597   0.12903   0.75000   1.000
    Zr21    Zr   0.12596   0.62903   0.74999   1.000
    Zr22    Zr   0.62503   0.12908   0.75003   1.000
    Zr23    Zr   0.62502   0.62908   0.75003   1.000
    Zr24    Zr   0.12593   0.12903   0.25000   1.000
    Zr25    Zr   0.12580   0.62903   0.24998   1.000
    Zr26    Zr   0.62497   0.12912   0.24998   1.000
    Zr27    Zr   0.37497   0.37087   0.24998   1.000
    Zr28    Zr   0.37523   0.87099   0.25000   1.000
    Zr29    Zr   0.87402   0.37096   0.25000   1.000
    Zr30    Zr   0.87414   0.87095   0.25000   1.000
    Zr31    Zr   0.41792   0.40333   0.71280   1.000
    Zr32    Zr   0.41790   0.90332   0.71279   1.000
    Zr33    Zr   0.91630   0.40342   0.71272   1.000
    Zr34    Zr   0.91630   0.90342   0.71272   1.000
    Zr35    Zr   0.16828   0.09675   0.78730   1.000
    Zr36    Zr   0.16828   0.59674   0.78730   1.000
    Zr37    Zr   0.66737   0.09665   0.78725   1.000
    Zr38    Zr   0.66736   0.59664   0.78725   1.000
    Zr39    Zr   0.33260   0.40331   0.78718   1.000
    Zr40    Zr   0.33260   0.90331   0.78718   1.000
    Zr41    Zr   0.83204   0.40324   0.78738   1.000
    Zr42    Zr   0.83202   0.90324   0.78737   1.000
    Zr43    Zr   0.08369   0.09657   0.71274   1.000
    Zr44    Zr   0.08368   0.59657   0.71274   1.000
    Zr45    Zr   0.58266   0.09677   0.71272   1.000
    Zr46    Zr   0.58267   0.59677   0.71270   1.000
    Zr47    Zr   0.08368   0.09657   0.28726   1.000
    Zr48    Zr   0.08367   0.59657   0.28728   1.000
    Zr49    Zr   0.58259   0.09679   0.28729   1.000
    Zr50    Zr   0.33262   0.40332   0.21276   1.000
    Zr51    Zr   0.33260   0.90334   0.21281   1.000
    Zr52    Zr   0.83172   0.40324   0.21270   1.000
    Zr53    Zr   0.83200   0.90324   0.21260   1.000
    Zr54    Zr   0.16824   0.09675   0.21268   1.000
    Zr55    Zr   0.16796   0.59674   0.21263   1.000
    Zr56    Zr   0.66737   0.09667   0.21270   1.000
    Zr57    Zr   0.41732   0.40320   0.28729   1.000
    Zr58    Zr   0.41785   0.90334   0.28721   1.000
    Zr59    Zr   0.91630   0.40342   0.28727   1.000
    Zr60    Zr   0.91630   0.90341   0.28728   1.000
    Zr61    Zr   0.62564   0.94501   0.70000   1.000
    O62     O    0.79133   0.95168   0.21343   1.000
    O63     O    0.85307   0.88710   0.23130   1.000
    O64     O    0.20864   0.54831   0.21343   1.000
    O65     O    0.14688   0.61289   0.23131   1.000
    O66     O    0.20892   0.04833   0.21350   1.000
    O67     O    0.14708   0.11289   0.23134   1.000
    O68     O    0.79103   0.45166   0.21351   1.000
    O69     O    0.85287   0.38710   0.23135   1.000
    O70     O    0.70901   0.04840   0.21348   1.000
    O71     O    0.64617   0.11290   0.23134   1.000
    O72     O    0.29097   0.45160   0.21350   1.000
    O73     O    0.35379   0.38710   0.23137   1.000
    O74     O    0.29111   0.95163   0.21356   1.000
    O75     O    0.35392   0.88716   0.23140   1.000
    O76     O    0.60378   0.11296   0.26863   1.000
    O77     O    0.10474   0.61280   0.26863   1.000
    O78     O    0.39614   0.38703   0.26863   1.000
    O79     O    0.10480   0.11280   0.26863   1.000
    O80     O    0.39654   0.88717   0.26860   1.000
    O81     O    0.89516   0.38719   0.26864   1.000
    O82     O    0.89522   0.88718   0.26864   1.000
    O83     O    0.45807   0.45162   0.28649   1.000
    O84     O    0.45944   0.95165   0.28645   1.000
    O85     O    0.54181   0.04837   0.28649   1.000
    O86     O    0.95813   0.45171   0.28652   1.000
    O87     O    0.04182   0.54829   0.28653   1.000
    O88     O    0.04184   0.04828   0.28652   1.000
    O89     O    0.95816   0.95170   0.28653   1.000
    O90     O    0.56335   0.97247   0.70715   1.000
    O91     O    0.54188   0.54835   0.71351   1.000
    O92     O    0.60385   0.61292   0.73137   1.000
    O93     O    0.95816   0.45170   0.71346   1.000
    O94     O    0.89525   0.38719   0.73137   1.000
    O95     O    0.95816   0.95170   0.71346   1.000
    O96     O    0.89525   0.88719   0.73137   1.000
    O97     O    0.54186   0.04835   0.71352   1.000
    O98     O    0.60385   0.11293   0.73137   1.000
    O99     O    0.04186   0.04828   0.71347   1.000
    O100    O    0.10483   0.11280   0.73137   1.000
    O101    O    0.04185   0.54828   0.71347   1.000
    O102    O    0.10482   0.61280   0.73137   1.000
    O103    O    0.45949   0.95163   0.71355   1.000
    O104    O    0.39659   0.88713   0.73139   1.000
    O105    O    0.45951   0.45163   0.71356   1.000
    O106    O    0.39660   0.38714   0.73140   1.000
    O107    O    0.14712   0.61289   0.76864   1.000
    O108    O    0.35394   0.38713   0.76859   1.000
    O109    O    0.35394   0.88713   0.76859   1.000
    O110    O    0.14712   0.11289   0.76865   1.000
    O111    O    0.85311   0.88709   0.76870   1.000
    O112    O    0.85311   0.38710   0.76870   1.000
    O113    O    0.64620   0.11287   0.76864   1.000
    O114    O    0.64619   0.61286   0.76864   1.000
    O115    O    0.29113   0.45161   0.78642   1.000
    O116    O    0.20897   0.54832   0.78648   1.000
    O117    O    0.29113   0.95161   0.78643   1.000
    O118    O    0.20897   0.04833   0.78649   1.000
    O119    O    0.70902   0.04838   0.78651   1.000
    O120    O    0.79135   0.95167   0.78657   1.000
    O121    O    0.70902   0.54838   0.78651   1.000
    O122    O    0.79135   0.45168   0.78658   1.000
    N123    N    0.25003   0.50000   0.99996   1.000
    O124    O    0.24993   0.49996   0.91275   1.000
    O125    O    0.24981   0.49996   0.08716   1.000
    N126    N    0.62459   0.30568   0.24999   1.000
    O127    O    0.62475   0.23804   0.24998   1.000
    O128    O    0.65605   0.38914   0.24108   1.000
    O129    O    0.59317   0.38913   0.25892   1.000
    N130    N    0.37520   0.69438   0.25000   1.000
    O131    O    0.37520   0.76204   0.25000   1.000
    O132    O    0.34351   0.61090   0.24106   1.000
    O133    O    0.40589   0.61095   0.25892   1.000
    N134    N    0.62476   0.80561   0.24546   1.000
    O135    O    0.59403   0.88904   0.25666   1.000
    O136    O    0.65644   0.88908   0.23880   1.000
    N137    N    0.49996   0.49998   0.49990   1.000
    O138    O    0.50039   0.49996   0.58715   1.000
    O139    O    0.49954   0.50000   0.41273   1.000
    N140    N    0.00000   0.00000   0.50000   1.000
    O141    O    0.00001   1.00000   0.58720   1.000
    O142    O    0.00000   0.00000   0.41280   1.000
    N143    N    0.50025   0.00005   0.49987   1.000
    O144    O    0.50052   0.00000   0.58714   1.000
    O145    O    0.50046   0.00001   0.41271   1.000
    N146    N    1.00000   0.49999   0.50000   1.000
    O147    O    0.00000   0.49999   0.58720   1.000
    O148    O    0.99999   0.49999   0.41280   1.000
    N149    N    0.62482   0.30563   0.75002   1.000
    O150    O    0.65649   0.38910   0.75895   1.000
    O151    O    0.59410   0.38905   0.74109   1.000
    O152    O    0.62491   0.23799   0.75003   1.000
    N153    N    0.12522   0.80559   0.75003   1.000
    O154    O    0.12553   0.73794   0.75002   1.000
    O155    O    0.15612   0.88901   0.75894   1.000
    O156    O    0.09371   0.88903   0.74107   1.000
    N157    N    0.87480   0.69439   0.75003   1.000
    O158    O    0.84397   0.61098   0.75897   1.000
    O159    O    0.90631   0.61095   0.74108   1.000
    O160    O    0.87454   0.76204   0.75003   1.000
    N161    N    0.74995   0.49997   0.00000   1.000
    O162    O    0.75006   0.50001   0.08724   1.000
    O163    O    0.75018   0.50002   0.91281   1.000
    N164    N    0.37543   0.19433   0.75000   1.000
    O165    O    0.37536   0.26200   0.75000   1.000
    O166    O    0.40681   0.11087   0.74107   1.000
    O167    O    0.34395   0.11087   0.75892   1.000
    N168    N    0.12522   0.30560   0.75003   1.000
    O169    O    0.12554   0.23795   0.75002   1.000
    O170    O    0.15612   0.38902   0.75894   1.000
    O171    O    0.09371   0.38903   0.74107   1.000
    N172    N    0.87480   0.19439   0.75003   1.000
    O173    O    0.87454   0.26204   0.75003   1.000
    O174    O    0.84398   0.11098   0.75897   1.000
    O175    O    0.90632   0.11095   0.74108   1.000
    N176    N    0.25005   0.00000   0.99997   1.000
    O177    O    0.24993   0.99996   0.91276   1.000
    O178    O    0.24991   0.99997   0.08719   1.000
    N179    N    0.74999   0.99997   0.00001   1.000
    O180    O    0.75019   0.00003   0.91281   1.000
    O181    O    0.75018   0.00003   0.08722   1.000
    N182    N    0.62472   0.60743   0.25001   1.000
    O183    O    0.58258   0.57789   0.26823   1.000
    O184    O    0.66679   0.57790   0.23179   1.000
    N185    N    0.12520   0.80560   0.24997   1.000
    O186    O    0.09369   0.88904   0.25892   1.000
    O187    O    0.15609   0.88902   0.24105   1.000
    O188    O    0.12546   0.73795   0.24997   1.000
    N189    N    0.12520   0.30559   0.24997   1.000
    O190    O    0.09368   0.38904   0.25892   1.000
    O191    O    0.15602   0.38900   0.24103   1.000
    O192    O    0.12551   0.23795   0.24998   1.000
    N193    N    0.37535   0.19431   0.24998   1.000
    O194    O    0.34388   0.11086   0.24107   1.000
    O195    O    0.40673   0.11087   0.25892   1.000
    O196    O    0.37519   0.26196   0.24998   1.000
    N197    N    0.62473   0.79169   0.75002   1.000
    O198    O    0.62486   0.73102   0.75003   1.000
    N199    N    0.87478   0.19440   0.24998   1.000
    O200    O    0.87446   0.26205   0.24998   1.000
    O201    O    0.84396   0.11099   0.24104   1.000
    O202    O    0.90630   0.11096   0.25892   1.000
    N203    N    0.37542   0.69433   0.75000   1.000
    O204    O    0.37535   0.76199   0.75000   1.000
    O205    O    0.40681   0.61087   0.74107   1.000
    O206    O    0.34395   0.61086   0.75891   1.000
    N207    N    0.87478   0.69439   0.24997   1.000
    O208    O    0.87450   0.76203   0.24998   1.000
    O209    O    0.90628   0.61095   0.25892   1.000
    O210    O    0.84388   0.61097   0.24106   1.000
loop_
    _geom_bond_atom_site_label_1
    _geom_bond_atom_site_label_2
    _geom_bond_distance
    _geom_bond_site_symmetry_2
    _ccdc_geom_bond_type
    Zr53   O62       1.02275      .   S
    Zr14   O62       1.02275  1_545   S
    Zr53   O63       0.63685      .   S
    Zr30   O63       0.63685      .   S
    Zr55   O64       1.02271      .   S
    Zr13   O64       1.02271      .   S
    Zr55   O65       0.63632      .   S
    Zr25   O65       0.63632      .   S
    Zr54   O66       1.02245      .   S
    Zr12   O66       1.02245  1_565   S
    Zr54   O67       0.63638      .   S
    Zr24   O67       0.63638      .   S
    Zr52   O68       1.02243      .   S
    Zr15   O68       1.02243      .   S
    Zr52   O69       0.63623      .   S
    Zr29   O69       0.63623      .   S
    Zr56   O70       1.02662      .   S
    Zr14   O70       1.02662      .   S
    Zr56   O71       0.63696      .   S
    Zr26   O71       0.63696      .   S
    Zr50   O72       1.02660      .   S
    Zr13   O72       1.02660      .   S
    Zr50   O73       0.63627      .   S
    Zr27   O73       0.63627      .   S
    Zr51   O74       1.02584      .   S
    Zr12   O74       1.02584      .   S
    Zr51   O75       0.63631      .   S
    Zr28   O75       0.63631      .   S
    Zr26   O76       0.63647      .   S
    Zr49   O76       0.63647      .   S
    Zr25   O77       0.63620      .   S
    Zr48   O77       0.63620      .   S
    Zr27   O78       0.63638      .   S
    Zr57   O78       0.63638      .   S
    Zr24   O79       0.63611      .   S
    Zr47   O79       0.63611      .   S
    Zr28   O80       0.63621      .   S
    Zr58   O80       0.63621      .   S
    Zr29   O81       0.63631      .   S
    Zr59   O81       0.63631      .   S
    Zr30   O82       0.63611      .   S
    Zr60   O82       0.63611      .   S
    Zr11   O83       1.02195      .   S
    Zr57   O83       1.02195      .   S
    Zr10   O84       1.02569      .   S
    Zr58   O84       1.02569      .   S
    Zr10   O85       1.02210  1_565   S
    Zr49   O85       1.02210      .   S
    Zr9    O86       1.02717      .   S
    Zr59   O86       1.02717      .   S
    Zr9    O87       1.02713  1_655   S
    Zr48   O87       1.02713      .   S
    Zr8    O88       1.02712  1_565   S
    Zr47   O88       1.02712      .   S
    Zr8    O89       1.02724  1_455   S
    Zr60   O89       1.02724      .   S
    Zr61   O90       0.96465      .   S
    Zr2    O90       0.96465      .   S
    Zr46   O91       1.02212      .   S
    Zr3    O91       1.02212      .   S
    Zr46   O92       0.63653      .   S
    Zr23   O92       0.63653      .   S
    Zr33   O93       1.02716      .   S
    Zr1    O93       1.02716  1_455   S
    Zr33   O94       0.63616      .   S
    Zr18   O94       0.63616      .   S
    Zr34   O95       1.02726      .   S
    Zr0    O95       1.02726  1_455   S
    Zr34   O96       0.63612      .   S
    Zr19   O96       0.63612      .   S
    Zr45   O97       1.02218      .   S
    Zr2    O97       1.02218  1_565   S
    Zr45   O98       0.63638      .   S
    Zr22   O98       0.63638      .   S
    Zr43   O99       1.02713      .   S
    Zr0    O99       1.02713  1_565   S
    Zr43   O100      0.63621      .   S
    Zr20   O100      0.63621      .   S
    Zr44   O101      1.02713      .   S
    Zr1    O101      1.02713      .   S
    Zr44   O102      0.63611      .   S
    Zr21   O102      0.63611      .   S
    Zr32   O103      1.02569      .   S
    Zr2    O103      1.02569      .   S
    Zr32   O104      0.63630      .   S
    Zr17   O104      0.63630      .   S
    Zr31   O105      1.02566      .   S
    Zr3    O105      1.02566      .   S
    Zr31   O106      0.63623      .   S
    Zr16   O106      0.63623      .   S
    Zr21   O107      0.63639      .   S
    Zr36   O107      0.63639      .   S
    Zr16   O108      0.63633      .   S
    Zr39   O108      0.63633      .   S
    Zr17   O109      0.63631      .   S
    Zr40   O109      0.63631      .   S
    Zr20   O110      0.63626      .   S
    Zr35   O110      0.63626      .   S
    Zr19   O111      0.63636      .   S
    Zr42   O111      0.63636      .   S
    Zr18   O112      0.63641      .   S
    Zr41   O112      0.63641      .   S
    Zr22   O113      0.63617      .   S
    Zr37   O113      0.63617      .   S
    Zr23   O114      0.63617      .   S
    Zr38   O114      0.63617      .   S
    Zr5    O115      1.02581      .   S
    Zr39   O115      1.02581      .   S
    Zr5    O116      1.02247      .   S
    Zr36   O116      1.02247      .   S
    Zr4    O117      1.02585      .   S
    Zr40   O117      1.02585      .   S
    Zr4    O118      1.02247  1_565   S
    Zr35   O118      1.02247      .   S
    Zr6    O119      1.02653      .   S
    Zr37   O119      1.02653      .   S
    Zr6    O120      1.02270  1_545   S
    Zr42   O120      1.02270      .   S
    Zr7    O121      1.02653      .   S
    Zr38   O121      1.02653      .   S
    Zr7    O122      1.02268      .   S
    Zr41   O122      1.02268      .   S
    N123   O124      2.31317      .   S
    Zr5    O124      3.37051      .   S
    N123   O125      2.31284  1_556   S
    Zr13   O125      3.37018      .   S
    N126   O127      1.22440      .   S
    Zr26   O127      1.97132      .   S
    N126   O128      1.58148      .   S
    Zr15   O128      2.45188      .   S
    N126   O129      1.58216      .   S
    Zr11   O129      2.45420      .   S
    N130   O131      1.22468      .   S
    Zr28   O131      1.97200      .   S
    N130   O132      1.58265      .   S
    Zr13   O132      2.45328      .   S
    N130   O133      1.57943      .   S
    Zr11   O133      2.44512      .   S
    N134   O135      1.58971      .   S
    Zr10   O135      2.46365      .   S
    N134   O136      1.57474      .   S
    Zr14   O136      2.43648  1_545   S
    N137   O138      2.31424      .   S
    Zr3    O138      3.37265      .   S
    N137   O139      2.31198      .   S
    Zr11   O139      3.36946      .   S
    N140   O141      2.31277  1_545   S
    Zr0    O141      3.36851      .   S
    N140   O142      2.31278      .   S
    Zr8    O142      3.36892  1_565   S
    N143   O144      2.31461      .   S
    Zr2    O144      3.37301  1_565   S
    N143   O145      2.31161      .   S
    Zr10   O145      3.36908  1_565   S
    N146   O147      2.31274  1_655   S
    Zr1    O147      3.36849      .   S
    N146   O148      2.31281      .   S
    Zr9    O148      3.36895      .   S
    N149   O150      1.58245      .   S
    Zr7    O150      2.45289      .   S
    N149   O151      1.57943      .   S
    Zr3    O151      2.44531      .   S
    N149   O152      1.22429      .   S
    Zr22   O152      1.97124      .   S
    N153   O154      1.22445      .   S
    Zr21   O154      1.97144      .   S
    N153   O155      1.57908      .   S
    Zr4    O155      2.44636      .   S
    N153   O156      1.58243      .   S
    Zr0    O156      2.45141      .   S
    N157   O158      1.57874      .   S
    Zr7    O158      2.44502      .   S
    N157   O159      1.58247      .   S
    Zr1    O159      2.45173  1_455   S
    N157   O160      1.22443      .   S
    Zr19   O160      1.97140      .   S
    N161   O162      2.31369      .   S
    Zr15   O162      3.37090      .   S
    N161   O163      2.31252  1_554   S
    Zr7    O163      3.36934      .   S
    N164   O165      1.22478      .   S
    Zr16   O165      1.97208      .   S
    N164   O166      1.58216      .   S
    Zr2    O166      2.45399  1_565   S
    N164   O167      1.58171      .   S
    Zr4    O167      2.45233  1_565   S
    N168   O169      1.22446      .   S
    Zr20   O169      1.97145      .   S
    N168   O170      1.57904      .   S
    Zr5    O170      2.44622      .   S
    N168   O171      1.58241      .   S
    Zr1    O171      2.45137      .   S
    N172   O173      1.22444      .   S
    Zr18   O173      1.97140      .   S
    N172   O174      1.57873      .   S
    Zr6    O174      2.44498      .   S
    N172   O175      1.58247      .   S
    Zr0    O175      2.45174  1_465   S
    N176   O177      2.31320  1_545   S
    Zr4    O177      3.37054      .   S
    N176   O178      2.31321  1_546   S
    Zr12   O178      3.37161      .   S
    N179   O180      2.31283  1_564   S
    Zr6    O180      3.36951      .   S
    N179   O181      2.31291  1_565   S
    Zr14   O181      3.36959      .   S
    N182   O183      0.90264      .   S
    Zr11   O183      1.83453      .   S
    N182   O184      0.90265      .   S
    Zr15   O184      1.83448      .   S
    N185   O186      1.58237      .   S
    Zr8    O186      2.45124      .   S
    N185   O187      1.57909      .   S
    Zr12   O187      2.44629      .   S
    N185   O188      1.22446      .   S
    Zr25   O188      1.97142      .   S
    N189   O190      1.58246      .   S
    Zr9    O190      2.45157  1_655   S
    N189   O191      1.57872      .   S
    Zr13   O191      2.44496      .   S
    N189   O192      1.22444      .   S
    Zr24   O192      1.97143      .   S
    N193   O194      1.58156      .   S
    Zr12   O194      2.45189  1_565   S
    N193   O195      1.58204      .   S
    Zr10   O195      2.45401  1_565   S
    N193   O196      1.22439      .   S
    Zr27   O196      1.97132      .   S
    N197   O198      1.09816      .   S
    Zr23   O198      1.84511      .   S
    N199   O200      1.22444      .   S
    Zr29   O200      1.97143      .   S
    N199   O201      1.57871      .   S
    Zr14   O201      2.44490      .   S
    N199   O202      1.58248      .   S
    Zr8    O202      2.45166  1_465   S
    N203   O204      1.22479      .   S
    Zr17   O204      1.97209      .   S
    N203   O205      1.58217      .   S
    Zr3    O205      2.45403      .   S
    N203   O206      1.58169      .   S
    Zr5    O206      2.45229      .   S
    N207   O208      1.22445      .   S
    Zr30   O208      1.97140      .   S
    N207   O209      1.58235      .   S
    Zr9    O209      2.45125      .   S
    N207   O210      1.57907      .   S
    Zr15   O210      2.44625      .   S
