# CIF file generated by openbabel 2.4.90, see http://openbabel.sf.net
data_I
_chemical_name_common ''
_cell_length_a 12.91
_cell_length_b 18.1
_cell_length_c 26.523
_cell_angle_alpha 90.001
_cell_angle_beta 89.994
_cell_angle_gamma 90.063
_space_group_name_H-M_alt 'P 1'
_space_group_name_Hall 'P 1'
loop_
    _symmetry_equiv_pos_as_xyz
    x,y,z
loop_
    _atom_site_label
    _atom_site_type_symbol
    _atom_site_fract_x
    _atom_site_fract_y
    _atom_site_fract_z
    _atom_site_occupancy
    Zr0     Zr   0.00003   0.99999   0.71420   1.000
    Zr1     Zr   0.00003   0.49998   0.71420   1.000
    Zr2     Zr   0.50107   0.99993   0.71431   1.000
    Zr3     Zr   0.50109   0.49993   0.71431   1.000
    Zr4     Zr   0.24965   0.99991   0.78568   1.000
    Zr5     Zr   0.24965   0.49990   0.78567   1.000
    Zr6     Zr   0.75067   0.00011   0.78577   1.000
    Zr7     Zr   0.75067   0.50011   0.78578   1.000
    Zr8     Zr   0.00001   0.99999   0.28578   1.000
    Zr9     Zr   0.50103   0.99995   0.28569   1.000
    Zr10    Zr   0.24961   0.99992   0.21431   1.000
    Zr11    Zr   0.75065   0.00012   0.21426   1.000
    Zr12    Zr   0.62564   0.94501   0.70000   1.000
    O13     O    0.56335   0.97247   0.70715   1.000
    N14     N    0.25003   0.50000   0.99996   1.000
    O15     O    0.24993   0.49996   0.91275   1.000
    N16     N    0.62459   0.30568   0.24999   1.000
    N17     N    0.37520   0.69438   0.25000   1.000
    N18     N    0.62476   0.80561   0.24546   1.000
    O19     O    0.59403   0.88904   0.25666   1.000
    O20     O    0.65644   0.88908   0.23880   1.000
    N21     N    0.49996   0.49998   0.49990   1.000
    O22     O    0.50039   0.49996   0.58715   1.000
    N23     N    0.00000   0.00000   0.50000   1.000
    O24     O    0.00001   1.00000   0.58720   1.000
    O25     O    0.00000   0.00000   0.41280   1.000
    N26     N    0.50025   0.00005   0.49987   1.000
    O27     O    0.50052   0.00000   0.58714   1.000
    O28     O    0.50046   0.00001   0.41271   1.000
    N29     N    1.00000   0.49999   0.50000   1.000
    O30     O    0.00000   0.49999   0.58720   1.000
    N31     N    0.62482   0.30563   0.75002   1.000
    O32     O    0.65649   0.38910   0.75895   1.000
    O33     O    0.59410   0.38905   0.74109   1.000
    N34     N    0.12522   0.80559   0.75003   1.000
    O35     O    0.15612   0.88901   0.75894   1.000
    O36     O    0.09371   0.88903   0.74107   1.000
    N37     N    0.87480   0.69439   0.75003   1.000
    O38     O    0.84397   0.61098   0.75897   1.000
    O39     O    0.90631   0.61095   0.74108   1.000
    N40     N    0.74995   0.49997   0.00000   1.000
    O41     O    0.75018   0.50002   0.91281   1.000
    N42     N    0.37543   0.19433   0.75000   1.000
    O43     O    0.40681   0.11087   0.74107   1.000
    O44     O    0.34395   0.11087   0.75892   1.000
    N45     N    0.12522   0.30560   0.75003   1.000
    O46     O    0.15612   0.38902   0.75894   1.000
    O47     O    0.09371   0.38903   0.74107   1.000
    N48     N    0.87480   0.19439   0.75003   1.000
    O49     O    0.84398   0.11098   0.75897   1.000
    O50     O    0.90632   0.11095   0.74108   1.000
    N51     N    0.25005   0.00000   0.99997   1.000
    O52     O    0.24993   0.99996   0.91276   1.000
    O53     O    0.24991   0.99997   0.08719   1.000
    N54     N    0.74999   0.99997   0.00001   1.000
    O55     O    0.75019   0.00003   0.91281   1.000
    O56     O    0.75018   0.00003   0.08722   1.000
    N57     N    0.62472   0.60743   0.25001   1.000
    N58     N    0.12520   0.80560   0.24997   1.000
    O59     O    0.09369   0.88904   0.25892   1.000
    O60     O    0.15609   0.88902   0.24105   1.000
    N61     N    0.12520   0.30559   0.24997   1.000
    N62     N    0.37535   0.19431   0.24998   1.000
    O63     O    0.34388   0.11086   0.24107   1.000
    O64     O    0.40673   0.11087   0.25892   1.000
    N65     N    0.62473   0.79169   0.75002   1.000
    N66     N    0.87478   0.19440   0.24998   1.000
    O67     O    0.84396   0.11099   0.24104   1.000
    O68     O    0.90630   0.11096   0.25892   1.000
    N69     N    0.37542   0.69433   0.75000   1.000
    O70     O    0.40681   0.61087   0.74107   1.000
    O71     O    0.34395   0.61086   0.75891   1.000
    N72     N    0.87478   0.69439   0.24997   1.000
    Zr73    Zr   0.12483   0.47518   0.24999   1.000
    O74     O    0.26536   0.54306   0.25446   1.000
    O75     O    0.31219   0.48759   0.33136   1.000
    O76     O    0.35900   0.43215   0.25446   1.000
    O77     O    0.35371   0.52653   0.25911   1.000
    O78     O    0.98435   0.54307   0.24553   1.000
    O79     O    0.89581   0.52654   0.24089   1.000
    O80     O    0.89044   0.43216   0.24554   1.000
    O81     O    0.93745   0.48759   0.16862   1.000
    O82     O    0.14043   0.43209   0.24551   1.000
    O83     O    0.18732   0.48757   0.16858   1.000
    O84     O    0.23417   0.54304   0.24553   1.000
    O85     O    0.01556   0.54306   0.25446   1.000
    O86     O    0.06241   0.48759   0.33140   1.000
    O87     O    0.10926   0.43211   0.25446   1.000
    O88     O    0.12515   0.60656   0.24998   1.000
    O89     O    0.25001   0.36857   0.24999   1.000
    O90     O    0.99965   0.36861   0.24999   1.000
    C91     C    0.37523   0.89256   0.25001   1.000
    O92     O    0.33317   0.92209   0.23178   1.000
    O93     O    0.37522   0.82730   0.25000   1.000
    O94     O    0.41733   0.92210   0.26823   1.000
    C95     C    0.12595   0.10745   0.24998   1.000
    O96     O    0.16744   0.07789   0.23174   1.000
    O97     O    0.08390   0.07786   0.26825   1.000
    O98     O    0.12573   0.17270   0.24998   1.000
    C99     C    0.62498   0.10753   0.24999   1.000
    O100    O    0.62486   0.17278   0.24999   1.000
    O101    O    0.58339   0.07795   0.26824   1.000
    O102    O    0.66699   0.07796   0.23173   1.000
    C103    C    0.87415   0.89253   0.24996   1.000
    O104    O    0.83274   0.92211   0.23169   1.000
    O105    O    0.87433   0.82728   0.24997   1.000
    O106    O    0.91615   0.92212   0.26825   1.000
    C107    C    0.37527   0.39253   0.74999   1.000
    O108    O    0.37531   0.32726   0.75000   1.000
    O109    O    0.33320   0.42207   0.76821   1.000
    O110    O    0.41739   0.42208   0.73177   1.000
    C111    C    0.62502   0.60750   0.74999   1.000
    O112    O    0.58345   0.57792   0.73175   1.000
    O113    O    0.66702   0.57794   0.76825   1.000
    O114    O    0.62494   0.66926   0.75001   1.000
    C115    C    0.87418   0.39254   0.75004   1.000
    O116    O    0.87436   0.32729   0.75004   1.000
    O117    O    0.83276   0.42211   0.76831   1.000
    O118    O    0.91617   0.42212   0.73175   1.000
    C119    C    0.12598   0.60745   0.75001   1.000
    O120    O    0.16747   0.57789   0.76825   1.000
    O121    O    0.08391   0.57786   0.73174   1.000
    O122    O    0.12575   0.67270   0.75001   1.000
    C123    C    0.62502   0.10750   0.75000   1.000
    O124    O    0.66702   0.07794   0.76825   1.000
    O125    O    0.58344   0.07793   0.73176   1.000
    O126    O    0.62496   0.17275   0.75001   1.000
    C127    C    0.87417   0.89254   0.75004   1.000
    O128    O    0.87435   0.82729   0.75003   1.000
    O129    O    0.83276   0.92211   0.76830   1.000
    O130    O    0.91617   0.92212   0.73175   1.000
    C131    C    0.37526   0.89253   0.74999   1.000
    O132    O    0.37531   0.82726   0.75000   1.000
    O133    O    0.41737   0.92208   0.73177   1.000
    O134    O    0.33319   0.92207   0.76821   1.000
    C135    C    0.12598   0.10745   0.75001   1.000
    O136    O    0.12576   0.17270   0.75002   1.000
    O137    O    0.08392   0.07786   0.73174   1.000
    O138    O    0.16747   0.07789   0.76825   1.000
loop_
    _geom_bond_atom_site_label_1
    _geom_bond_atom_site_label_2
    _geom_bond_distance
    _geom_bond_site_symmetry_2
    _ccdc_geom_bond_type
    Zr12   O13       0.96465      .   S
    Zr2    O13       0.96465      .   S
    N14    O15       2.31317      .   S
    Zr5    O15       3.37051      .   S
    N18    O19       1.58971      .   S
    Zr9    O19       2.46365      .   S
    N18    O20       1.57474      .   S
    Zr11   O20       2.43648  1_545   S
    N21    O22       2.31424      .   S
    Zr3    O22       3.37265      .   S
    N23    O24       2.31277  1_545   S
    Zr0    O24       3.36851      .   S
    N23    O25       2.31278      .   S
    Zr8    O25       3.36892  1_565   S
    N26    O27       2.31461      .   S
    Zr2    O27       3.37301  1_565   S
    N26    O28       2.31161      .   S
    Zr9    O28       3.36908  1_565   S
    N29    O30       2.31274  1_655   S
    Zr1    O30       3.36849      .   S
    N31    O32       1.58245      .   S
    Zr7    O32       2.45289      .   S
    N31    O33       1.57943      .   S
    Zr3    O33       2.44531      .   S
    N34    O35       1.57908      .   S
    Zr4    O35       2.44636      .   S
    N34    O36       1.58243      .   S
    Zr0    O36       2.45141      .   S
    N37    O38       1.57874      .   S
    Zr7    O38       2.44502      .   S
    N37    O39       1.58247      .   S
    Zr1    O39       2.45173  1_455   S
    N40    O41       2.31252  1_554   S
    Zr7    O41       3.36934      .   S
    N42    O43       1.58216      .   S
    Zr2    O43       2.45399  1_565   S
    N42    O44       1.58171      .   S
    Zr4    O44       2.45233  1_565   S
    N45    O46       1.57904      .   S
    Zr5    O46       2.44622      .   S
    N45    O47       1.58241      .   S
    Zr1    O47       2.45137      .   S
    N48    O49       1.57873      .   S
    Zr6    O49       2.44498      .   S
    N48    O50       1.58247      .   S
    Zr0    O50       2.45174  1_465   S
    N51    O52       2.31320  1_545   S
    Zr4    O52       3.37054      .   S
    N51    O53       2.31321  1_546   S
    Zr10   O53       3.37161      .   S
    N54    O55       2.31283  1_564   S
    Zr6    O55       3.36951      .   S
    N54    O56       2.31291  1_565   S
    Zr11   O56       3.36959      .   S
    N58    O59       1.58237      .   S
    Zr8    O59       2.45124      .   S
    N58    O60       1.57909      .   S
    Zr10   O60       2.44629      .   S
    N62    O63       1.58156      .   S
    Zr10   O63       2.45189  1_565   S
    N62    O64       1.58204      .   S
    Zr9    O64       2.45401  1_565   S
    N66    O67       1.57871      .   S
    Zr11   O67       2.44490      .   S
    N66    O68       1.58248      .   S
    Zr8    O68       2.45166  1_465   S
    N69    O70       1.58217      .   S
    Zr3    O70       2.45403      .   S
    N69    O71       1.58169      .   S
    Zr5    O71       2.45229      .   S
    Zr73   O74       2.19320      .   S
    N17    O74       3.08494      .   S
    Zr73   O75       3.24930      .   S
    N21    O75       5.09016      .   S
    Zr73   O76       3.12489      .   S
    N16    O76       4.12650      .   S
    Zr73   O77       3.10600      .   S
    N57    O77       3.79899      .   S
    Zr73   O78       2.19504  1_455   S
    N72    O78       3.08615      .   S
    Zr73   O79       3.10972  1_455   S
    N57    O79       3.80285      .   S
    Zr73   O80       3.12601  1_455   S
    N16    O80       4.12510      .   S
    Zr73   O81       3.25022  1_455   S
    N40    O81       5.09040      .   S
    Zr73   O82       0.81440      .   S
    N61    O82       2.30085      .   S
    Zr73   O83       2.31586      .   S
    N14    O83       4.55033  1_556   S
    Zr73   O84       1.87388      .   S
    N17    O84       3.28948      .   S
    Zr73   O85       1.87556      .   S
    N72    O85       3.29090  1_655   S
    Zr73   O86       2.31547      .   S
    N29    O86       4.54938  1_655   S
    Zr73   O87       0.81357      .   S
    N61    O87       2.30243      .   S
    Zr73   O88       2.37805      .   S
    N58    O88       3.60250      .   S
    Zr73   O89       2.51836      .   S
    N62    O89       3.54651      .   S
    Zr73   O90       2.51508  1_455   S
    N66    O90       3.53991      .   S
    C91    O92       0.90275      .   S
    Zr10   O92       1.83470      .   S
    C91    O93       1.18119      .   S
    N17    O93       2.40587      .   S
    C91    O94       0.90246      .   S
    Zr9    O94       1.83416      .   S
    C95    O96       0.89876      .   S
    Zr10   O96       1.82598  1_565   S
    C95    O97       0.90311      .   S
    Zr8    O97       1.83639  1_565   S
    C95    O98       1.18100      .   S
    N61    O98       2.40544      .   S
    C99    O100      1.18109      .   S
    N16    O100      2.40549      .   S
    C99    O101      0.89915      .   S
    Zr9    O101      1.82610  1_565   S
    C99    O102      0.90311      .   S
    Zr11   O102      1.83562      .   S
    C103   O104      0.89873      .   S
    Zr11   O104      1.82600  1_545   S
    C103   O105      1.18104      .   S
    N72    O105      2.40549      .   S
    C103   O106      0.90298      .   S
    Zr8    O106      1.83622  1_455   S
    C107   O108      1.18133      .   S
    N42    O108      2.40611      .   S
    C107   O109      0.90269      .   S
    Zr5    O109      1.83460      .   S
    C107   O110      0.90254      .   S
    Zr3    O110      1.83428      .   S
    C111   O112      0.89893      .   S
    Zr3    O112      1.82590      .   S
    C111   O113      0.90306      .   S
    Zr7    O113      1.83577      .   S
    C111   O114      1.11789      .   S
    N65    O114      2.21605      .   S
    C115   O116      1.18102      .   S
    N48    O116      2.40546      .   S
    C115   O117      0.89868      .   S
    Zr7    O117      1.82605      .   S
    C115   O118      0.90290      .   S
    Zr1    O118      1.83610  1_455   S
    C119   O120      0.89885      .   S
    Zr5    O120      1.82614      .   S
    C119   O121      0.90323      .   S
    Zr1    O121      1.83658      .   S
    C119   O122      1.18102      .   S
    N34    O122      2.40547      .   S
    C123   O124      0.90299      .   S
    Zr6    O124      1.83571      .   S
    C123   O125      0.89899      .   S
    Zr2    O125      1.82610  1_565   S
    C123   O126      1.18095      .   S
    N31    O126      2.40524      .   S
    C127   O128      1.18102      .   S
    N37    O128      2.40546      .   S
    C127   O129      0.89866      .   S
    Zr6    O129      1.82608  1_545   S
    C127   O130      0.90292      .   S
    Zr0    O130      1.83624  1_455   S
    C131   O132      1.18133      .   S
    N69    O132      2.40612      .   S
    C131   O133      0.90251      .   S
    Zr2    O133      1.83423      .   S
    C131   O134      0.90274      .   S
    Zr4    O134      1.83470      .   S
    C135   O136      1.18102      .   S
    N45    O136      2.40548      .   S
    C135   O137      0.90325      .   S
    Zr0    O137      1.83658  1_565   S
    C135   O138      0.89884      .   S
    Zr4    O138      1.82616  1_565   S
