# CIF file generated by openbabel 2.4.90, see http://openbabel.sf.net
data_I
_chemical_name_common ''
_cell_length_a 12.91
_cell_length_b 18.1
_cell_length_c 26.523
_cell_angle_alpha 90.001
_cell_angle_beta 89.994
_cell_angle_gamma 90.063
_space_group_name_H-M_alt 'P 1'
_space_group_name_Hall 'P 1'
loop_
    _symmetry_equiv_pos_as_xyz
    x,y,z
loop_
    _atom_site_label
    _atom_site_type_symbol
    _atom_site_fract_x
    _atom_site_fract_y
    _atom_site_fract_z
    _atom_site_occupancy
    C0      C    0.00003   0.99999   0.71420   1.000
    C1      C    0.00003   0.49998   0.71420   1.000
    C2      C    0.50107   0.99993   0.71431   1.000
    C3      C    0.50109   0.49993   0.71431   1.000
    C4      C    0.24965   0.99991   0.78568   1.000
    C5      C    0.24965   0.49990   0.78567   1.000
    C6      C    0.75067   0.00011   0.78577   1.000
    C7      C    0.75067   0.50011   0.78578   1.000
    C8      C    0.00001   0.99999   0.28578   1.000
    C9      C    0.99997   0.50000   0.28578   1.000
    C10     C    0.50103   0.99995   0.28569   1.000
    C11     C    0.49882   0.50004   0.28569   1.000
    C12     C    0.24961   0.99992   0.21431   1.000
    C13     C    0.24933   0.49987   0.21423   1.000
    C14     C    0.75065   0.00012   0.21426   1.000
    C15     C    0.75034   0.50007   0.21433   1.000
    C16     C    0.38585   0.42008   0.63087   1.000
    C17     C    0.38581   0.92010   0.63081   1.000
    C18     C    0.88404   0.42106   0.63070   1.000
    C19     C    0.88404   0.92106   0.63070   1.000
    C20     C    0.37837   0.41738   0.53795   1.000
    C21     C    0.37843   0.91747   0.53789   1.000
    C22     C    0.87694   0.41840   0.53785   1.000
    C23     C    0.87693   0.91840   0.53785   1.000
    C24     C    0.13444   0.07900   0.86920   1.000
    C25     C    0.13443   0.57899   0.86923   1.000
    C26     C    0.63439   0.07897   0.86926   1.000
    C27     C    0.63440   0.57897   0.86927   1.000
    C28     C    0.12740   0.08171   0.96216   1.000
    C29     C    0.12738   0.58170   0.96214   1.000
    C30     C    0.62711   0.08153   0.96218   1.000
    C31     C    0.62711   0.58153   0.96219   1.000
    C32     C    0.36565   0.42096   0.86921   1.000
    C33     C    0.36562   0.92095   0.86923   1.000
    C34     C    0.86576   0.42103   0.86932   1.000
    C35     C    0.86575   0.92103   0.86930   1.000
    C36     C    0.37283   0.41837   0.96213   1.000
    C37     C    0.37280   0.91835   0.96215   1.000
    C38     C    0.87268   0.41830   0.96223   1.000
    C39     C    0.87269   0.91830   0.96220   1.000
    C40     C    0.11598   0.07894   0.63076   1.000
    C41     C    0.11597   0.57894   0.63075   1.000
    C42     C    0.61515   0.07987   0.63068   1.000
    C43     C    0.61518   0.57984   0.63063   1.000
    C44     C    0.12307   0.08160   0.53784   1.000
    C45     C    0.12306   0.58159   0.53784   1.000
    C46     C    0.62189   0.08269   0.53770   1.000
    C47     C    0.62182   0.58260   0.53771   1.000
    C48     C    0.11597   0.07894   0.36924   1.000
    C49     C    0.11595   0.57893   0.36924   1.000
    C50     C    0.61493   0.07993   0.36920   1.000
    C51     C    0.61410   0.57988   0.36914   1.000
    C52     C    0.12306   0.08160   0.46210   1.000
    C53     C    0.12306   0.58159   0.46215   1.000
    C54     C    0.62179   0.08274   0.46219   1.000
    C55     C    0.62156   0.58257   0.46206   1.000
    C56     C    0.36555   0.42099   0.13073   1.000
    C57     C    0.36562   0.92099   0.13070   1.000
    C58     C    0.86558   0.42100   0.13077   1.000
    C59     C    0.86567   0.92101   0.13073   1.000
    C60     C    0.37285   0.41842   0.03781   1.000
    C61     C    0.37284   0.91840   0.03782   1.000
    C62     C    0.87261   0.41827   0.03786   1.000
    C63     C    0.87263   0.91827   0.03782   1.000
    C64     C    0.13434   0.07897   0.13072   1.000
    C65     C    0.13425   0.57896   0.13068   1.000
    C66     C    0.63442   0.07901   0.13078   1.000
    C67     C    0.63432   0.57900   0.13079   1.000
    C68     C    0.12734   0.08168   0.03780   1.000
    C69     C    0.12732   0.58168   0.03777   1.000
    C70     C    0.62716   0.08158   0.03786   1.000
    C71     C    0.62713   0.58158   0.03787   1.000
    C72     C    0.38475   0.42013   0.36937   1.000
    C73     C    0.38559   0.92016   0.36920   1.000
    C74     C    0.88402   0.42105   0.36925   1.000
    C75     C    0.88403   0.92105   0.36925   1.000
    C76     C    0.37809   0.41736   0.46229   1.000
    C77     C    0.37833   0.91751   0.46215   1.000
    C78     C    0.87693   0.41839   0.46217   1.000
    C79     C    0.87693   0.91840   0.46217   1.000
    C80     C    0.37718   0.24698   0.79482   1.000
    C81     C    0.37718   0.74698   0.79482   1.000
    C82     C    0.87601   0.24705   0.79487   1.000
    C83     C    0.87601   0.74705   0.79487   1.000
    C84     C    0.37984   0.17034   0.79486   1.000
    C85     C    0.37984   0.67033   0.79486   1.000
    C86     C    0.87889   0.17043   0.79490   1.000
    C87     C    0.87888   0.67042   0.79490   1.000
    C88     C    0.43573   0.45575   0.60843   1.000
    C89     C    0.43571   0.95579   0.60800   1.000
    C90     C    0.93459   0.45632   0.60838   1.000
    C91     C    0.93459   0.95632   0.60838   1.000
    C92     C    0.43311   0.45459   0.55609   1.000
    C93     C    0.43314   0.95466   0.55606   1.000
    C94     C    0.93220   0.45516   0.55604   1.000
    C95     C    0.93219   0.95516   0.55604   1.000
    C96     C    0.12715   0.25293   0.70520   1.000
    C97     C    0.12715   0.75293   0.70520   1.000
    C98     C    0.62658   0.25297   0.70520   1.000
    C99     C    0.62658   0.75297   0.70520   1.000
    C100    C    0.12842   0.32958   0.70514   1.000
    C101    C    0.12841   0.82958   0.70514   1.000
    C102    C    0.62933   0.32961   0.70516   1.000
    C103    C    0.62932   0.82960   0.70516   1.000
    C104    C    0.18485   0.04371   0.89163   1.000
    C105    C    0.18485   0.54370   0.89161   1.000
    C106    C    0.68479   0.04368   0.89165   1.000
    C107    C    0.68479   0.54367   0.89167   1.000
    C108    C    0.18247   0.04490   0.94397   1.000
    C109    C    0.18247   0.54490   0.94395   1.000
    C110    C    0.68229   0.04480   0.94399   1.000
    C111    C    0.68228   0.54479   0.94401   1.000
    C112    C    0.37360   0.24699   0.70519   1.000
    C113    C    0.37360   0.74698   0.70519   1.000
    C114    C    0.87291   0.24706   0.70521   1.000
    C115    C    0.87291   0.74705   0.70521   1.000
    C116    C    0.37097   0.17034   0.70515   1.000
    C117    C    0.37097   0.67033   0.70515   1.000
    C118    C    0.87162   0.17041   0.70514   1.000
    C119    C    0.87161   0.67041   0.70514   1.000
    C120    C    0.31527   0.45627   0.89160   1.000
    C121    C    0.31524   0.95626   0.89162   1.000
    C122    C    0.81529   0.45630   0.89100   1.000
    C123    C    0.81528   0.95630   0.89167   1.000
    C124    C    0.31771   0.45514   0.94394   1.000
    C125    C    0.31768   0.95513   0.94396   1.000
    C126    C    0.81759   0.45509   0.94403   1.000
    C127    C    0.81759   0.95509   0.94401   1.000
    C128    C    0.12405   0.25294   0.79486   1.000
    C129    C    0.12405   0.75293   0.79486   1.000
    C130    C    0.62299   0.25299   0.79486   1.000
    C131    C    0.62299   0.75299   0.79486   1.000
    C132    C    0.12115   0.32956   0.79489   1.000
    C133    C    0.12115   0.82956   0.79489   1.000
    C134    C    0.62045   0.32963   0.79489   1.000
    C135    C    0.62044   0.82963   0.79489   1.000
    C136    C    0.06541   0.04368   0.60837   1.000
    C137    C    0.06541   0.54367   0.60837   1.000
    C138    C    0.56509   0.04421   0.60833   1.000
    C139    C    0.56510   0.54417   0.60830   1.000
    C140    C    0.06781   0.04485   0.55603   1.000
    C141    C    0.06780   0.54484   0.55603   1.000
    C142    C    0.56730   0.04546   0.55599   1.000
    C143    C    0.56725   0.54538   0.55596   1.000
    C144    C    0.12402   0.25293   0.20514   1.000
    C145    C    0.12400   0.75294   0.20510   1.000
    C146    C    0.62288   0.25304   0.20516   1.000
    C147    C    0.62289   0.75296   0.20518   1.000
    C148    C    0.12112   0.32956   0.20511   1.000
    C149    C    0.12112   0.82957   0.20511   1.000
    C150    C    0.62017   0.32968   0.20513   1.000
    C151    C    0.62038   0.82960   0.20513   1.000
    C152    C    0.06541   0.04368   0.39163   1.000
    C153    C    0.06540   0.54366   0.39163   1.000
    C154    C    0.56491   0.04426   0.39166   1.000
    C155    C    0.56420   0.54421   0.39158   1.000
    C156    C    0.06780   0.04485   0.44397   1.000
    C157    C    0.06779   0.54483   0.44397   1.000
    C158    C    0.56718   0.04550   0.44399   1.000
    C159    C    0.56682   0.54537   0.44392   1.000
    C160    C    0.37350   0.24697   0.29480   1.000
    C161    C    0.37348   0.74704   0.29481   1.000
    C162    C    0.87285   0.24706   0.29481   1.000
    C163    C    0.87287   0.74705   0.29480   1.000
    C164    C    0.37090   0.17032   0.29485   1.000
    C165    C    0.37069   0.67040   0.29485   1.000
    C166    C    0.87159   0.17042   0.29487   1.000
    C167    C    0.87158   0.67040   0.29487   1.000
    C168    C    0.31518   0.45629   0.10834   1.000
    C169    C    0.31523   0.95629   0.10836   1.000
    C170    C    0.81515   0.45629   0.10839   1.000
    C171    C    0.81523   0.95629   0.10830   1.000
    C172    C    0.31768   0.45517   0.05600   1.000
    C173    C    0.31770   0.95515   0.05601   1.000
    C174    C    0.81752   0.45507   0.05605   1.000
    C175    C    0.81756   0.95507   0.05602   1.000
    C176    C    0.12712   0.25293   0.29480   1.000
    C177    C    0.12710   0.75293   0.29479   1.000
    C178    C    0.62646   0.25303   0.29480   1.000
    C179    C    0.62648   0.75295   0.29482   1.000
    C180    C    0.12839   0.32958   0.29487   1.000
    C181    C    0.12839   0.82958   0.29486   1.000
    C182    C    0.62904   0.32967   0.29485   1.000
    C183    C    0.62926   0.82959   0.29486   1.000
    C184    C    0.18479   0.04369   0.10835   1.000
    C185    C    0.18471   0.54368   0.10831   1.000
    C186    C    0.68479   0.04371   0.10838   1.000
    C187    C    0.68471   0.54370   0.10840   1.000
    C188    C    0.18243   0.04489   0.05601   1.000
    C189    C    0.18240   0.54489   0.05597   1.000
    C190    C    0.68231   0.04482   0.05604   1.000
    C191    C    0.68226   0.54482   0.05606   1.000
    C192    C    0.37708   0.24695   0.20510   1.000
    C193    C    0.37707   0.74702   0.20517   1.000
    C194    C    0.87595   0.24706   0.20515   1.000
    C195    C    0.87596   0.74705   0.20514   1.000
    C196    C    0.37977   0.17032   0.20513   1.000
    C197    C    0.37957   0.67038   0.20513   1.000
    C198    C    0.87886   0.17043   0.20510   1.000
    C199    C    0.87885   0.67042   0.20511   1.000
    C200    C    0.43482   0.45580   0.39170   1.000
    C201    C    0.43554   0.95584   0.39163   1.000
    C202    C    0.93458   0.45631   0.39164   1.000
    C203    C    0.93458   0.95632   0.39164   1.000
    C204    C    0.43267   0.45458   0.44400   1.000
    C205    C    0.43303   0.95469   0.44397   1.000
    C206    C    0.93219   0.45515   0.44398   1.000
    C207    C    0.93219   0.95516   0.44398   1.000
    C208    C    0.00000   0.00001   0.52801   1.000
    C209    C    1.00000   0.50000   0.52801   1.000
    C210    C    0.50015   0.00008   0.52801   1.000
    C211    C    0.50009   0.49997   0.52801   1.000
    C212    C    0.25010   0.00003   0.97190   1.000
    C213    C    0.25011   0.50004   0.97196   1.000
    C214    C    0.74990   0.99993   0.97200   1.000
    C215    C    0.74989   0.49992   0.97204   1.000
    C216    C    0.00000   0.00001   0.47199   1.000
    C217    C    1.00000   0.49999   0.47199   1.000
    C218    C    0.50009   0.00010   0.47000   1.000
    C219    C    0.49983   0.49999   0.47000   1.000
    C220    C    0.25009   0.00003   0.02799   1.000
    C221    C    0.25007   0.50003   0.02797   1.000
    C222    C    0.74992   0.99994   0.02802   1.000
    C223    C    0.74989   0.49994   0.02804   1.000
    C224    C    0.37528   0.37095   0.75000   1.000
    C225    C    0.37527   0.87095   0.75000   1.000
    C226    C    0.87419   0.37096   0.75002   1.000
    C227    C    0.87420   0.87095   0.75002   1.000
    C228    C    0.37529   0.28838   0.75001   1.000
    C229    C    0.37529   0.78837   0.75001   1.000
    C230    C    0.87436   0.28842   0.75004   1.000
    C231    C    0.87435   0.78842   0.75004   1.000
    C232    C    0.37537   0.12876   0.75000   1.000
    C233    C    0.37537   0.62875   0.75000   1.000
    C234    C    0.87553   0.12892   0.75002   1.000
    C235    C    0.87552   0.62891   0.75002   1.000
    C236    C    0.12597   0.12903   0.75000   1.000
    C237    C    0.12596   0.62903   0.74999   1.000
    C238    C    0.62503   0.12908   0.75003   1.000
    C239    C    0.62502   0.62908   0.75003   1.000
    C240    C    0.12574   0.21157   0.75003   1.000
    C241    C    0.12573   0.71157   0.75003   1.000
    C242    C    0.62495   0.21162   0.75004   1.000
    C243    C    0.62495   0.71162   0.75004   1.000
    C244    C    0.12451   0.37108   0.75001   1.000
    C245    C    0.12451   0.87108   0.75001   1.000
    C246    C    0.62521   0.37114   0.75002   1.000
    C247    C    0.62520   0.87114   0.75002   1.000
    C248    C    0.12593   0.12903   0.25000   1.000
    C249    C    0.12580   0.62903   0.24998   1.000
    C250    C    0.62497   0.12912   0.24998   1.000
    C251    C    0.62472   0.62900   0.25000   1.000
    C252    C    0.12569   0.21157   0.24997   1.000
    C253    C    0.12565   0.71157   0.24996   1.000
    C254    C    0.62485   0.21166   0.24997   1.000
    C255    C    0.62476   0.71158   0.20000   1.000
    C256    C    0.12447   0.37107   0.24999   1.000
    C257    C    0.12448   0.87108   0.24999   1.000
    C258    C    0.62463   0.37126   0.25000   1.000
    C259    C    0.62514   0.87112   0.25000   1.000
    C260    C    0.37497   0.37087   0.24998   1.000
    C261    C    0.37523   0.87099   0.25000   1.000
    C262    C    0.87402   0.37096   0.25000   1.000
    C263    C    0.87414   0.87095   0.25000   1.000
    C264    C    0.37509   0.28834   0.24997   1.000
    C265    C    0.37518   0.78841   0.24999   1.000
    C266    C    0.87428   0.28842   0.24998   1.000
    C267    C    0.87432   0.78841   0.24997   1.000
    C268    C    0.37527   0.12874   0.24999   1.000
    C269    C    0.37479   0.62887   0.24999   1.000
    C270    C    0.87550   0.12892   0.24999   1.000
    C271    C    0.87548   0.62890   0.24999   1.000
    C272    C    0.00001   0.00000   0.63459   1.000
    C273    C    0.00000   0.50000   0.63459   1.000
    C274    C    0.50051   0.99997   0.63450   1.000
    C275    C    0.50053   0.49996   0.63450   1.000
    C276    C    0.24999   0.99995   0.86541   1.000
    C277    C    0.24999   0.49994   0.86540   1.000
    C278    C    0.75013   0.00004   0.86545   1.000
    C279    C    0.75014   0.50004   0.86547   1.000
    C280    C    1.00000   0.00001   0.36542   1.000
    C281    C    0.99999   0.49999   0.36542   1.000
    C282    C    0.50033   0.00000   0.36543   1.000
    C283    C    0.49940   0.50001   0.36543   1.000
    C284    C    0.24995   0.99996   0.13450   1.000
    C285    C    0.24987   0.49995   0.13450   1.000
    C286    C    0.75009   0.00004   0.13458   1.000
    C287    C    0.74998   0.50002   0.13461   1.000
    C288    C    0.41792   0.40333   0.71280   1.000
    C289    C    0.41790   0.90332   0.71279   1.000
    C290    C    0.91630   0.40342   0.71272   1.000
    C291    C    0.91630   0.90342   0.71272   1.000
    C292    C    0.16828   0.09675   0.78730   1.000
    C293    C    0.16828   0.59674   0.78730   1.000
    C294    C    0.66737   0.09665   0.78725   1.000
    C295    C    0.66736   0.59664   0.78725   1.000
    C296    C    0.33260   0.40331   0.78718   1.000
    C297    C    0.33260   0.90331   0.78718   1.000
    C298    C    0.83204   0.40324   0.78738   1.000
    C299    C    0.83202   0.90324   0.78737   1.000
    C300    C    0.08369   0.09657   0.71274   1.000
    C301    C    0.08368   0.59657   0.71274   1.000
    C302    C    0.58266   0.09677   0.71272   1.000
    C303    C    0.58267   0.59677   0.71270   1.000
    C304    C    0.08368   0.09657   0.28726   1.000
    C305    C    0.08367   0.59657   0.28728   1.000
    C306    C    0.58259   0.09679   0.28729   1.000
    C307    C    0.58207   0.59664   0.28721   1.000
    C308    C    0.33262   0.40332   0.21276   1.000
    C309    C    0.33260   0.90334   0.21281   1.000
    C310    C    0.83172   0.40324   0.21270   1.000
    C311    C    0.83200   0.90324   0.21260   1.000
    C312    C    0.16824   0.09675   0.21268   1.000
    C313    C    0.16796   0.59674   0.21263   1.000
    C314    C    0.66737   0.09667   0.21270   1.000
    C315    C    0.66738   0.59665   0.21282   1.000
    C316    C    0.41732   0.40320   0.28729   1.000
    C317    C    0.41785   0.90334   0.28721   1.000
    C318    C    0.91630   0.40342   0.28727   1.000
    C319    C    0.91630   0.90341   0.28728   1.000
    C320    C    0.37530   0.05490   0.74999   1.000
    C321    C    0.37531   0.55490   0.74999   1.000
    C322    C    0.87563   0.05504   0.75004   1.000
    C323    C    0.87562   0.55503   0.75004   1.000
    C324    C    0.12438   0.44496   0.75004   1.000
    C325    C    0.12437   0.94496   0.75004   1.000
    C326    C    0.62565   0.44501   0.75000   1.000
    C327    C    0.62564   0.94501   0.70000   1.000
    C328    C    0.12435   0.44495   0.24996   1.000
    C329    C    0.12437   0.94496   0.24996   1.000
    C330    C    0.62467   0.44511   0.25001   1.000
    C331    C    0.62559   0.94499   0.25002   1.000
    C332    C    0.37519   0.05489   0.25001   1.000
    C333    C    0.37433   0.55500   0.25001   1.000
    C334    C    0.87563   0.05504   0.24996   1.000
    C335    C    0.87560   0.55502   0.24996   1.000
    C336    C    0.38223   0.28121   0.84008   1.000
    C337    C    0.38223   0.78121   0.84008   1.000
    C338    C    0.88007   0.28121   0.84016   1.000
    C339    C    0.88007   0.78121   0.84016   1.000
    C340    C    0.38662   0.13426   0.83950   1.000
    C341    C    0.38661   0.63426   0.83950   1.000
    C342    C    0.88447   0.13428   0.83956   1.000
    C343    C    0.88446   0.63427   0.83956   1.000
    C344    C    0.13321   0.21876   0.65996   1.000
    C345    C    0.13321   0.71875   0.65996   1.000
    C346    C    0.63117   0.21877   0.65993   1.000
    C347    C    0.63116   0.71877   0.65993   1.000
    C348    C    0.13341   0.36572   0.66045   1.000
    C349    C    0.13341   0.86572   0.66045   1.000
    C350    C    0.63556   0.36571   0.66049   1.000
    C351    C    0.63556   0.86571   0.66049   1.000
    C352    C    0.36882   0.28121   0.65993   1.000
    C353    C    0.36881   0.78120   0.65990   1.000
    C354    C    0.86677   0.28123   0.65998   1.000
    C355    C    0.86677   0.78123   0.65998   1.000
    C356    C    0.36446   0.13426   0.66047   1.000
    C357    C    0.36445   0.63426   0.66047   1.000
    C358    C    0.86657   0.13427   0.66046   1.000
    C359    C    0.86656   0.63427   0.66046   1.000
    C360    C    0.11991   0.21876   0.84015   1.000
    C361    C    0.11991   0.71876   0.84015   1.000
    C362    C    0.61775   0.21877   0.84010   1.000
    C363    C    0.61774   0.71876   0.84010   1.000
    C364    C    0.11551   0.36570   0.83956   1.000
    C365    C    0.11551   0.86570   0.83956   1.000
    C366    C    0.61339   0.36573   0.83953   1.000
    C367    C    0.61339   0.86572   0.83953   1.000
    C368    C    0.11992   0.21877   0.15985   1.000
    C369    C    0.11991   0.71877   0.15984   1.000
    C370    C    0.61776   0.21879   0.15991   1.000
    C371    C    0.61774   0.71875   0.15992   1.000
    C372    C    0.11552   0.36571   0.16045   1.000
    C373    C    0.11552   0.86571   0.16044   1.000
    C374    C    0.61337   0.36574   0.16047   1.000
    C375    C    0.61339   0.86571   0.16049   1.000
    C376    C    0.36881   0.28119   0.34006   1.000
    C377    C    0.36882   0.78123   0.34009   1.000
    C378    C    0.86677   0.28123   0.34004   1.000
    C379    C    0.86677   0.78123   0.34004   1.000
    C380    C    0.36445   0.13426   0.33953   1.000
    C381    C    0.36442   0.63428   0.33952   1.000
    C382    C    0.86657   0.13427   0.33955   1.000
    C383    C    0.86657   0.63427   0.33955   1.000
    C384    C    0.13321   0.21876   0.34003   1.000
    C385    C    0.13321   0.71876   0.34003   1.000
    C386    C    0.63118   0.21880   0.34006   1.000
    C387    C    0.63115   0.71876   0.34009   1.000
    C388    C    0.13341   0.36572   0.33955   1.000
    C389    C    0.13341   0.86572   0.33955   1.000
    C390    C    0.63552   0.36573   0.33953   1.000
    C391    C    0.63556   0.86571   0.33952   1.000
    C392    C    0.38223   0.28120   0.15991   1.000
    C393    C    0.38224   0.78123   0.15992   1.000
    C394    C    0.88007   0.28123   0.15986   1.000
    C395    C    0.88007   0.78121   0.15985   1.000
    C396    C    0.38662   0.13425   0.16047   1.000
    C397    C    0.38658   0.63427   0.16049   1.000
    C398    C    0.88447   0.13429   0.16045   1.000
    C399    C    0.88447   0.63428   0.16044   1.000
    O400    O    0.21623   0.52246   0.04197   1.000
    O401    O    0.28387   0.47760   0.04198   1.000
    O402    O    0.25009   0.50003   0.99996   1.000
    O403    O    0.28389   0.97759   0.04200   1.000
    O404    O    0.21626   0.02246   0.04200   1.000
    O405    O    0.25009   0.00003   0.99994   1.000
    O406    O    0.78374   0.97751   0.04202   1.000
    O407    O    0.71611   0.02238   0.04203   1.000
    O408    O    0.74991   0.99994   0.00001   1.000
    O409    O    0.78370   0.47751   0.04204   1.000
    O410    O    0.71607   0.52238   0.04205   1.000
    O411    O    0.74989   0.49993   0.00004   1.000
    O412    O    0.15486   0.56329   0.04687   1.000
    O413    O    0.15489   0.06328   0.04691   1.000
    O414    O    0.34526   0.43679   0.04691   1.000
    O415    O    0.84509   0.93667   0.04692   1.000
    O416    O    0.34527   0.93678   0.04691   1.000
    O417    O    0.84506   0.43667   0.04695   1.000
    O418    O    0.65473   0.06320   0.04695   1.000
    O419    O    0.65469   0.56320   0.04696   1.000
    O420    O    0.18355   0.54429   0.08214   1.000
    O421    O    0.31643   0.45573   0.08217   1.000
    O422    O    0.31646   0.95572   0.08218   1.000
    O423    O    0.18361   0.04429   0.08218   1.000
    O424    O    0.81640   0.95568   0.08216   1.000
    O425    O    0.68355   0.04427   0.08221   1.000
    O426    O    0.81634   0.45568   0.08222   1.000
    O427    O    0.68349   0.54426   0.08223   1.000
    O428    O    0.84045   0.93865   0.11951   1.000
    O429    O    0.78266   0.97817   0.12144   1.000
    O430    O    0.15948   0.56132   0.11949   1.000
    O431    O    0.21729   0.52181   0.12141   1.000
    O432    O    0.34036   0.43864   0.11954   1.000
    O433    O    0.28252   0.47812   0.12142   1.000
    O434    O    0.15956   0.06133   0.11954   1.000
    O435    O    0.21737   0.02182   0.12143   1.000
    O436    O    0.34043   0.93864   0.11953   1.000
    O437    O    0.28259   0.97812   0.12143   1.000
    O438    O    0.65960   0.06136   0.11958   1.000
    O439    O    0.71744   0.02188   0.12148   1.000
    O440    O    0.84037   0.43865   0.11958   1.000
    O441    O    0.78257   0.47816   0.12150   1.000
    O442    O    0.65952   0.56135   0.11959   1.000
    O443    O    0.71735   0.52186   0.12151   1.000
    O444    O    0.24960   0.49991   0.17436   1.000
    O445    O    0.24978   0.99994   0.17440   1.000
    O446    O    0.75037   0.00008   0.17442   1.000
    O447    O    0.75016   0.50005   0.17447   1.000
    O448    O    0.12195   0.73585   0.18247   1.000
    O449    O    0.12197   0.23585   0.18249   1.000
    O450    O    0.87802   0.76413   0.18249   1.000
    O451    O    0.87801   0.26414   0.18250   1.000
    O452    O    0.62032   0.23592   0.18253   1.000
    O453    O    0.37965   0.26408   0.18250   1.000
    O454    O    0.37966   0.76413   0.18255   1.000
    O455    O    0.62125   0.71516   0.17996   1.000
    O456    O    0.88166   0.65235   0.18277   1.000
    O457    O    0.11832   0.84764   0.18277   1.000
    O458    O    0.11832   0.34763   0.18278   1.000
    O459    O    0.88167   0.15236   0.18277   1.000
    O460    O    0.61677   0.34771   0.18280   1.000
    O461    O    0.38319   0.15228   0.18280   1.000
    O462    O    0.61689   0.84766   0.18281   1.000
    O463    O    0.38308   0.65233   0.18281   1.000
    O464    O    0.62382   0.73227   0.20259   1.000
    O465    O    0.37842   0.20863   0.20512   1.000
    O466    O    0.37608   0.26764   0.22753   1.000
    O467    O    0.12256   0.79125   0.20510   1.000
    O468    O    0.12482   0.73225   0.22753   1.000
    O469    O    0.87740   0.20875   0.20513   1.000
    O470    O    0.87718   0.14968   0.22754   1.000
    O471    O    0.12280   0.85032   0.22755   1.000
    O472    O    0.12257   0.29124   0.20512   1.000
    O473    O    0.12280   0.35032   0.22755   1.000
    O474    O    0.87741   0.70873   0.20512   1.000
    O475    O    0.87717   0.64966   0.22755   1.000
    O476    O    0.62152   0.29136   0.20514   1.000
    O477    O    0.62240   0.35047   0.22756   1.000
    O478    O    0.37832   0.70870   0.20515   1.000
    O479    O    0.37718   0.64962   0.22756   1.000
    O480    O    0.37752   0.14953   0.22756   1.000
    O481    O    0.62163   0.79128   0.20516   1.000
    O482    O    0.62276   0.85036   0.22756   1.000
    O483    O    0.87514   0.76773   0.22755   1.000
    O484    O    0.12486   0.23225   0.22755   1.000
    O485    O    0.87511   0.26774   0.22756   1.000
    O486    O    0.62386   0.23235   0.22756   1.000
    O487    O    0.37613   0.76772   0.22758   1.000
    O488    O    0.79133   0.95168   0.21343   1.000
    O489    O    0.85307   0.88710   0.23130   1.000
    O490    O    0.20864   0.54831   0.21343   1.000
    O491    O    0.14688   0.61289   0.23131   1.000
    O492    O    0.20892   0.04833   0.21350   1.000
    O493    O    0.14708   0.11289   0.23134   1.000
    O494    O    0.79103   0.45166   0.21351   1.000
    O495    O    0.85287   0.38710   0.23135   1.000
    O496    O    0.70901   0.04840   0.21348   1.000
    O497    O    0.64617   0.11290   0.23134   1.000
    O498    O    0.29097   0.45160   0.21350   1.000
    O499    O    0.35379   0.38710   0.23137   1.000
    O500    O    0.29111   0.95163   0.21356   1.000
    O501    O    0.35392   0.88716   0.23140   1.000
    O502    O    0.70886   0.54836   0.21357   1.000
    O503    O    0.64605   0.61283   0.23141   1.000
    O504    O    0.31240   0.02740   0.23216   1.000
    O505    O    0.68751   0.47259   0.23217   1.000
    O506    O    0.12443   0.90802   0.24998   1.000
    O507    O    0.06219   0.97247   0.26787   1.000
    O508    O    0.87554   0.59196   0.24998   1.000
    O509    O    0.93779   0.52751   0.26787   1.000
    O510    O    0.12573   0.67030   0.24997   1.000
    O511    O    0.12637   0.73225   0.27237   1.000
    O512    O    0.12441   0.40801   0.24998   1.000
    O513    O    0.06216   0.47248   0.26787   1.000
    O514    O    0.87557   0.09198   0.24998   1.000
    O515    O    0.93782   0.02751   0.26787   1.000
    O516    O    0.12581   0.17030   0.24999   1.000
    O517    O    0.12640   0.23225   0.27238   1.000
    O518    O    0.62491   0.17039   0.24998   1.000
    O519    O    0.62565   0.23234   0.27238   1.000
    O520    O    0.37503   0.32960   0.24998   1.000
    O521    O    0.37429   0.26765   0.27238   1.000
    O522    O    0.87423   0.82968   0.24999   1.000
    O523    O    0.87359   0.76773   0.27238   1.000
    O524    O    0.60378   0.11296   0.26863   1.000
    O525    O    0.87415   0.32969   0.24999   1.000
    O526    O    0.87356   0.26774   0.27239   1.000
    O527    O    0.10474   0.61280   0.26863   1.000
    O528    O    0.39614   0.38703   0.26863   1.000
    O529    O    0.87353   0.64965   0.27243   1.000
    O530    O    0.87355   0.14967   0.27243   1.000
    O531    O    0.37456   0.59193   0.25000   1.000
    O532    O    0.37274   0.64963   0.27242   1.000
    O533    O    0.37523   0.09181   0.25000   1.000
    O534    O    0.37308   0.14953   0.27242   1.000
    O535    O    0.12643   0.35032   0.27243   1.000
    O536    O    0.37521   0.82970   0.24999   1.000
    O537    O    0.37433   0.76772   0.27240   1.000
    O538    O    0.12644   0.85033   0.27242   1.000
    O539    O    0.10480   0.11280   0.26863   1.000
    O540    O    0.60339   0.61282   0.26860   1.000
    O541    O    0.62465   0.40818   0.25000   1.000
    O542    O    0.62684   0.35047   0.27242   1.000
    O543    O    0.62537   0.90806   0.25001   1.000
    O544    O    0.62720   0.85036   0.27243   1.000
    O545    O    0.39654   0.88717   0.26860   1.000
    O546    O    0.89516   0.38719   0.26864   1.000
    O547    O    0.89522   0.88718   0.26864   1.000
    O548    O    0.43657   0.52752   0.26785   1.000
    O549    O    0.56331   0.97247   0.26786   1.000
    O550    O    0.54045   0.54834   0.28645   1.000
    O551    O    0.45807   0.45162   0.28649   1.000
    O552    O    0.49911   0.50003   0.32556   1.000
    O553    O    0.45944   0.95165   0.28645   1.000
    O554    O    0.54181   0.04837   0.28649   1.000
    O555    O    0.50068   0.99998   0.32556   1.000
    O556    O    0.95813   0.45171   0.28652   1.000
    O557    O    0.04182   0.54829   0.28653   1.000
    O558    O    0.99998   0.50000   0.32560   1.000
    O559    O    0.04184   0.04828   0.28652   1.000
    O560    O    0.95816   0.95170   0.28653   1.000
    O561    O    0.00000   1.00000   0.32560   1.000
    O562    O    0.12774   0.79125   0.29483   1.000
    O563    O    0.13015   0.73584   0.31741   1.000
    O564    O    0.87222   0.70873   0.29484   1.000
    O565    O    0.86982   0.76414   0.31742   1.000
    O566    O    0.12775   0.29125   0.29484   1.000
    O567    O    0.13016   0.23584   0.31742   1.000
    O568    O    0.37220   0.20864   0.29483   1.000
    O569    O    0.37115   0.26408   0.31743   1.000
    O570    O    0.62775   0.29135   0.29483   1.000
    O571    O    0.62882   0.23591   0.31743   1.000
    O572    O    0.87222   0.20874   0.29484   1.000
    O573    O    0.86981   0.26415   0.31743   1.000
    O574    O    0.37208   0.70872   0.29483   1.000
    O575    O    0.37115   0.76413   0.31745   1.000
    O576    O    0.62787   0.79127   0.29484   1.000
    O577    O    0.62882   0.73585   0.31745   1.000
    O578    O    0.36755   0.65234   0.31718   1.000
    O579    O    0.36768   0.15229   0.31719   1.000
    O580    O    0.63228   0.34770   0.31719   1.000
    O581    O    0.13090   0.84765   0.31720   1.000
    O582    O    0.63241   0.84765   0.31719   1.000
    O583    O    0.86908   0.65234   0.31721   1.000
    O584    O    0.86908   0.15234   0.31721   1.000
    O585    O    0.13090   0.34765   0.31721   1.000
    O586    O    0.03270   0.02184   0.37853   1.000
    O587    O    0.96729   0.97816   0.37853   1.000
    O588    O    0.03269   0.52183   0.37853   1.000
    O589    O    0.96728   0.47815   0.37853   1.000
    O590    O    0.46794   0.97792   0.37853   1.000
    O591    O    0.53262   0.02213   0.37855   1.000
    O592    O    0.53180   0.52211   0.37851   1.000
    O593    O    0.46711   0.47791   0.37856   1.000
    O594    O    0.58915   0.56204   0.38036   1.000
    O595    O    0.41057   0.93800   0.38041   1.000
    O596    O    0.58992   0.06210   0.38043   1.000
    O597    O    0.09069   0.06131   0.38043   1.000
    O598    O    0.09067   0.56130   0.38043   1.000
    O599    O    0.90931   0.93869   0.38045   1.000
    O600    O    0.90930   0.43868   0.38045   1.000
    O601    O    0.40978   0.43796   0.38053   1.000
    O602    O    0.56551   0.54479   0.41775   1.000
    O603    O    0.06660   0.04426   0.41780   1.000
    O604    O    0.43429   0.95527   0.41780   1.000
    O605    O    0.06660   0.54425   0.41780   1.000
    O606    O    0.93339   0.45573   0.41781   1.000
    O607    O    0.93339   0.95574   0.41781   1.000
    O608    O    0.56605   0.04488   0.41783   1.000
    O609    O    0.43374   0.45519   0.41785   1.000
    O610    O    0.59419   0.56397   0.45299   1.000
    O611    O    0.53332   0.52268   0.45696   1.000
    O612    O    0.09543   0.56321   0.45306   1.000
    O613    O    0.03390   0.52241   0.45798   1.000
    O614    O    0.09543   0.06322   0.45303   1.000
    O615    O    0.03390   0.02243   0.45798   1.000
    O616    O    0.40568   0.93610   0.45306   1.000
    O617    O    0.46656   0.97740   0.45698   1.000
    O618    O    0.90456   0.93678   0.45308   1.000
    O619    O    0.96610   0.97758   0.45798   1.000
    O620    O    0.90456   0.43677   0.45308   1.000
    O621    O    0.96609   0.47757   0.45798   1.000
    O622    O    0.59448   0.06412   0.45309   1.000
    O623    O    0.53363   0.02280   0.45700   1.000
    O624    O    0.40538   0.43597   0.45315   1.000
    O625    O    0.46625   0.47729   0.45700   1.000
    O626    O    0.49996   0.49998   0.49900   1.000
    O627    O    0.50012   0.00009   0.49900   1.000
    O628    O    0.00000   0.00001   0.50000   1.000
    O629    O    1.00000   0.49999   0.50000   1.000
    O630    O    0.53367   0.52268   0.54198   1.000
    O631    O    0.46660   0.47728   0.54205   1.000
    O632    O    0.53372   0.02277   0.54200   1.000
    O633    O    0.46665   0.97737   0.54203   1.000
    O634    O    0.03390   0.52242   0.54202   1.000
    O635    O    0.96610   0.47758   0.54202   1.000
    O636    O    0.03390   0.02243   0.54202   1.000
    O637    O    0.96610   0.97758   0.54202   1.000
    O638    O    0.59459   0.06408   0.54684   1.000
    O639    O    0.59454   0.56399   0.54683   1.000
    O640    O    0.09544   0.06322   0.54694   1.000
    O641    O    0.09543   0.56321   0.54694   1.000
    O642    O    0.90456   0.93678   0.54694   1.000
    O643    O    0.90457   0.43678   0.54694   1.000
    O644    O    0.40578   0.93606   0.54697   1.000
    O645    O    0.40574   0.43599   0.54702   1.000
    O646    O    0.56618   0.54477   0.58213   1.000
    O647    O    0.56619   0.04484   0.58216   1.000
    O648    O    0.06661   0.04426   0.58220   1.000
    O649    O    0.06660   0.54426   0.58220   1.000
    O650    O    0.93339   0.95574   0.58221   1.000
    O651    O    0.93339   0.45574   0.58221   1.000
    O652    O    0.43442   0.95523   0.58203   1.000
    O653    O    0.43442   0.45517   0.58226   1.000
    O654    O    0.41076   0.93795   0.61940   1.000
    O655    O    0.46811   0.97788   0.62125   1.000
    O656    O    0.59014   0.56200   0.61947   1.000
    O657    O    0.53282   0.52206   0.62140   1.000
    O658    O    0.59012   0.06204   0.61951   1.000
    O659    O    0.53280   0.02209   0.62141   1.000
    O660    O    0.09069   0.56131   0.61956   1.000
    O661    O    0.03270   0.52184   0.62148   1.000
    O662    O    0.09069   0.06131   0.61957   1.000
    O663    O    0.03271   0.02184   0.62148   1.000
    O664    O    0.90931   0.93869   0.61954   1.000
    O665    O    0.96730   0.97816   0.62148   1.000
    O666    O    0.90931   0.43869   0.61954   1.000
    O667    O    0.96730   0.47816   0.62148   1.000
    O668    O    0.41079   0.43792   0.61965   1.000
    O669    O    0.46813   0.47786   0.62146   1.000
    O670    O    0.50079   0.99995   0.67441   1.000
    O671    O    0.50081   0.49995   0.67441   1.000
    O672    O    0.00002   1.00000   0.67439   1.000
    O673    O    0.00001   0.49999   0.67439   1.000
    O674    O    0.37121   0.76409   0.68254   1.000
    O675    O    0.62888   0.23587   0.68256   1.000
    O676    O    0.62887   0.73587   0.68256   1.000
    O677    O    0.37121   0.26410   0.68256   1.000
    O678    O    0.13018   0.23584   0.68258   1.000
    O679    O    0.13018   0.73584   0.68258   1.000
    O680    O    0.86984   0.76414   0.68259   1.000
    O681    O    0.86984   0.26415   0.68259   1.000
    O682    O    0.13091   0.84765   0.68279   1.000
    O683    O    0.13092   0.34765   0.68279   1.000
    O684    O    0.86909   0.65234   0.68280   1.000
    O685    O    0.86909   0.15234   0.68280   1.000
    O686    O    0.36771   0.65230   0.68281   1.000
    O687    O    0.36772   0.15230   0.68281   1.000
    O688    O    0.63244   0.84766   0.68283   1.000
    O689    O    0.63244   0.34766   0.68283   1.000
    O690    O    0.56335   0.97247   0.70715   1.000
    O691    O    0.12778   0.29126   0.70517   1.000
    O692    O    0.12647   0.35033   0.72758   1.000
    O693    O    0.12778   0.79125   0.70517   1.000
    O694    O    0.12646   0.85033   0.72758   1.000
    O695    O    0.87226   0.20874   0.70518   1.000
    O696    O    0.87357   0.14966   0.72758   1.000
    O697    O    0.87226   0.70873   0.70518   1.000
    O698    O    0.87357   0.64966   0.72758   1.000
    O699    O    0.37229   0.20866   0.70517   1.000
    O700    O    0.37317   0.14955   0.72758   1.000
    O701    O    0.37229   0.70866   0.70517   1.000
    O702    O    0.37317   0.64954   0.72758   1.000
    O703    O    0.62795   0.79129   0.70518   1.000
    O704    O    0.62726   0.85037   0.72759   1.000
    O705    O    0.62796   0.29129   0.70518   1.000
    O706    O    0.62727   0.35037   0.72759   1.000
    O707    O    0.37445   0.26768   0.72760   1.000
    O708    O    0.37444   0.76768   0.72760   1.000
    O709    O    0.12644   0.23225   0.72762   1.000
    O710    O    0.62577   0.23230   0.72762   1.000
    O711    O    0.12644   0.73225   0.72762   1.000
    O712    O    0.62576   0.73229   0.72762   1.000
    O713    O    0.87363   0.26774   0.72763   1.000
    O714    O    0.87363   0.76774   0.72763   1.000
    O715    O    0.54188   0.54835   0.71351   1.000
    O716    O    0.60385   0.61292   0.73137   1.000
    O717    O    0.95816   0.45170   0.71346   1.000
    O718    O    0.89525   0.38719   0.73137   1.000
    O719    O    0.95816   0.95170   0.71346   1.000
    O720    O    0.89525   0.88719   0.73137   1.000
    O721    O    0.54186   0.04835   0.71352   1.000
    O722    O    0.60385   0.11293   0.73137   1.000
    O723    O    0.04186   0.04828   0.71347   1.000
    O724    O    0.10483   0.11280   0.73137   1.000
    O725    O    0.04185   0.54828   0.71347   1.000
    O726    O    0.10482   0.61280   0.73137   1.000
    O727    O    0.45949   0.95163   0.71355   1.000
    O728    O    0.39659   0.88713   0.73139   1.000
    O729    O    0.45951   0.45163   0.71356   1.000
    O730    O    0.39660   0.38714   0.73140   1.000
    O731    O    0.06220   0.47247   0.73212   1.000
    O732    O    0.93782   0.52751   0.73212   1.000
    O733    O    0.06220   0.97247   0.73212   1.000
    O734    O    0.93783   0.02751   0.73212   1.000
    O735    O    0.56337   0.47247   0.73216   1.000
    O736    O    0.37534   0.09183   0.74999   1.000
    O737    O    0.31248   0.02740   0.76784   1.000
    O738    O    0.37534   0.59182   0.74999   1.000
    O739    O    0.31248   0.52740   0.76783   1.000
    O740    O    0.12585   0.67030   0.75001   1.000
    O741    O    0.14712   0.61289   0.76864   1.000
    O742    O    0.37529   0.32966   0.75000   1.000
    O743    O    0.35394   0.38713   0.76859   1.000
    O744    O    0.37528   0.82966   0.75000   1.000
    O745    O    0.35394   0.88713   0.76859   1.000
    O746    O    0.37761   0.14955   0.77243   1.000
    O747    O    0.37761   0.64954   0.77243   1.000
    O748    O    0.62543   0.40808   0.75001   1.000
    O749    O    0.12585   0.17030   0.75001   1.000
    O750    O    0.14712   0.11289   0.76865   1.000
    O751    O    0.12444   0.90802   0.75003   1.000
    O752    O    0.12283   0.85032   0.77245   1.000
    O753    O    0.12444   0.40802   0.75003   1.000
    O754    O    0.12283   0.35032   0.77245   1.000
    O755    O    0.37623   0.76767   0.77241   1.000
    O756    O    0.37624   0.26768   0.77241   1.000
    O757    O    0.87557   0.59197   0.75003   1.000
    O758    O    0.87720   0.64967   0.77246   1.000
    O759    O    0.87558   0.09198   0.75003   1.000
    O760    O    0.87721   0.14967   0.77246   1.000
    O761    O    0.87428   0.82968   0.75003   1.000
    O762    O    0.85311   0.88709   0.76870   1.000
    O763    O    0.62282   0.85038   0.77245   1.000
    O764    O    0.62283   0.35039   0.77245   1.000
    O765    O    0.87427   0.32969   0.75003   1.000
    O766    O    0.85311   0.38710   0.76870   1.000
    O767    O    0.62499   0.17035   0.75004   1.000
    O768    O    0.64620   0.11287   0.76864   1.000
    O769    O    0.12490   0.23225   0.77244   1.000
    O770    O    0.12489   0.73225   0.77244   1.000
    O771    O    0.62499   0.67035   0.75004   1.000
    O772    O    0.64619   0.61286   0.76864   1.000
    O773    O    0.87518   0.26774   0.77245   1.000
    O774    O    0.62397   0.73230   0.77245   1.000
    O775    O    0.62397   0.23231   0.77245   1.000
    O776    O    0.87518   0.76773   0.77245   1.000
    O777    O    0.29113   0.45161   0.78642   1.000
    O778    O    0.20897   0.54832   0.78648   1.000
    O779    O    0.24982   0.49992   0.82553   1.000
    O780    O    0.29113   0.95161   0.78643   1.000
    O781    O    0.20897   0.04833   0.78649   1.000
    O782    O    0.24982   0.99993   0.82555   1.000
    O783    O    0.70902   0.04838   0.78651   1.000
    O784    O    0.79135   0.95167   0.78657   1.000
    O785    O    0.75040   0.00008   0.82561   1.000
    O786    O    0.70902   0.54838   0.78651   1.000
    O787    O    0.79135   0.45168   0.78658   1.000
    O788    O    0.75040   0.50007   0.82562   1.000
    O789    O    0.37851   0.20866   0.79484   1.000
    O790    O    0.37971   0.26410   0.81745   1.000
    O791    O    0.37851   0.70865   0.79484   1.000
    O792    O    0.37970   0.76409   0.81745   1.000
    O793    O    0.62172   0.29131   0.79487   1.000
    O794    O    0.62037   0.23588   0.81748   1.000
    O795    O    0.12260   0.79125   0.79487   1.000
    O796    O    0.12198   0.73585   0.81750   1.000
    O797    O    0.62171   0.79131   0.79487   1.000
    O798    O    0.62037   0.73588   0.81748   1.000
    O799    O    0.12260   0.29125   0.79487   1.000
    O800    O    0.12198   0.23585   0.81750   1.000
    O801    O    0.38323   0.65230   0.81718   1.000
    O802    O    0.38323   0.15230   0.81718   1.000
    O803    O    0.87745   0.70874   0.79488   1.000
    O804    O    0.87804   0.76413   0.81751   1.000
    O805    O    0.87745   0.20874   0.79488   1.000
    O806    O    0.87804   0.26413   0.81751   1.000
    O807    O    0.11833   0.84763   0.81722   1.000
    O808    O    0.61692   0.34768   0.81721   1.000
    O809    O    0.61691   0.84768   0.81721   1.000
    O810    O    0.11833   0.34763   0.81722   1.000
    O811    O    0.88167   0.65235   0.81723   1.000
    O812    O    0.88168   0.15235   0.81723   1.000
    O813    O    0.28263   0.47811   0.87850   1.000
    O814    O    0.21742   0.52182   0.87850   1.000
    O815    O    0.28262   0.97810   0.87851   1.000
    O816    O    0.21742   0.02183   0.87852   1.000
    O817    O    0.71746   0.02186   0.87855   1.000
    O818    O    0.78271   0.97817   0.87856   1.000
    O819    O    0.78271   0.47817   0.87823   1.000
    O820    O    0.71746   0.52186   0.87857   1.000
    O821    O    0.15964   0.06135   0.88042   1.000
    O822    O    0.34046   0.43862   0.88040   1.000
    O823    O    0.15964   0.56134   0.88042   1.000
    O824    O    0.34043   0.93860   0.88043   1.000
    O825    O    0.65959   0.06132   0.88045   1.000
    O826    O    0.65960   0.56132   0.88047   1.000
    O827    O    0.84051   0.93866   0.88048   1.000
    O828    O    0.84052   0.43867   0.88016   1.000
    O829    O    0.81644   0.45569   0.91751   1.000
    O830    O    0.31649   0.45571   0.91777   1.000
    O831    O    0.18366   0.54430   0.91778   1.000
    O832    O    0.31646   0.95569   0.91779   1.000
    O833    O    0.18366   0.04430   0.91780   1.000
    O834    O    0.68354   0.04424   0.91782   1.000
    O835    O    0.68354   0.54423   0.91784   1.000
    O836    O    0.81644   0.95569   0.91784   1.000
    O837    O    0.34527   0.43676   0.95303   1.000
    O838    O    0.28391   0.47759   0.95795   1.000
    O839    O    0.15493   0.56330   0.95304   1.000
    O840    O    0.21629   0.52247   0.95795   1.000
    O841    O    0.34524   0.93674   0.95305   1.000
    O842    O    0.28389   0.97758   0.95793   1.000
    O843    O    0.15494   0.06331   0.95306   1.000
    O844    O    0.21629   0.02247   0.95793   1.000
    O845    O    0.65470   0.06316   0.95308   1.000
    O846    O    0.71610   0.02236   0.95800   1.000
    O847    O    0.84514   0.93669   0.95310   1.000
    O848    O    0.78375   0.97751   0.95800   1.000
    O849    O    0.65470   0.56316   0.95310   1.000
    O850    O    0.71609   0.52236   0.95802   1.000
    O851    O    0.84514   0.43669   0.95313   1.000
    O852    O    0.78374   0.47750   0.95804   1.000
    O853    O    0.43819   0.02742   0.73215   1.000
    O854    O    0.43820   0.52742   0.73215   1.000
    O855    O    0.81315   0.02758   0.76790   1.000
    O856    O    0.81315   0.52757   0.76791   1.000
    O857    O    0.18701   0.47243   0.76785   1.000
    O858    O    0.18701   0.97243   0.76786   1.000
    O859    O    0.68816   0.47256   0.76789   1.000
    O860    O    0.18684   0.47241   0.23209   1.000
    O861    O    0.18699   0.97244   0.23213   1.000
    O862    O    0.56175   0.47258   0.26785   1.000
    O863    O    0.68812   0.97256   0.23214   1.000
    O864    O    0.43811   0.02742   0.26785   1.000
    O865    O    0.31183   0.52743   0.23212   1.000
    O866    O    0.81314   0.02758   0.23211   1.000
    O867    O    0.81297   0.52755   0.23214   1.000
loop_
    _geom_bond_atom_site_label_1
    _geom_bond_atom_site_label_2
    _geom_bond_distance
    _geom_bond_site_symmetry_2
    _ccdc_geom_bond_type
    C221   O400      0.70274      .   S
    C189   O400      0.70274      .   S
    C221   O401      0.70279      .   S
    C172   O401      0.70279      .   S
    C221   O402      0.74278  1_554   S
    C213   O402      0.74278      .   S
    C220   O403      0.70278  1_545   S
    C173   O403      0.70278      .   S
    C220   O404      0.70281      .   S
    C188   O404      0.70281      .   S
    C220   O405      0.74384  1_554   S
    C212   O405      0.74384      .   S
    C222   O406      0.70276      .   S
    C175   O406      0.70276      .   S
    C222   O407      0.70273  1_565   S
    C190   O407      0.70273      .   S
    C222   O408      0.74291      .   S
    C214   O408      0.74291  1_556   S
    C223   O409      0.70275      .   S
    C174   O409      0.70275      .   S
    C223   O410      0.70280      .   S
    C191   O410      0.70280      .   S
    C223   O411      0.74264      .   S
    C215   O411      0.74264  1_556   S
    C69    O412      0.54389      .   S
    C189   O412      0.54389      .   S
    C68    O413      0.54399      .   S
    C188   O413      0.54399      .   S
    C60    O414      0.54391      .   S
    C172   O414      0.54391      .   S
    C63    O415      0.54390      .   S
    C175   O415      0.54390      .   S
    C61    O416      0.54388      .   S
    C173   O416      0.54388      .   S
    C62    O417      0.54388      .   S
    C174   O417      0.54388      .   S
    C70    O418      0.54385      .   S
    C190   O418      0.54385      .   S
    C71    O419      0.54387      .   S
    C191   O419      0.54387      .   S
    C189   O420      0.69435      .   S
    C185   O420      0.69435      .   S
    C172   O421      0.69437      .   S
    C168   O421      0.69437      .   S
    C173   O422      0.69450      .   S
    C169   O422      0.69450      .   S
    C188   O423      0.69436      .   S
    C184   O423      0.69436      .   S
    C175   O424      0.69356      .   S
    C171   O424      0.69356      .   S
    C190   O425      0.69437      .   S
    C186   O425      0.69437      .   S
    C174   O426      0.69436      .   S
    C170   O426      0.69436      .   S
    C191   O427      0.69436      .   S
    C187   O427      0.69436      .   S
    C171   O428      0.54468      .   S
    C59    O428      0.54468      .   S
    C171   O429      0.67486      .   S
    C286   O429      0.67486  1_545   S
    C185   O430      0.54426      .   S
    C65    O430      0.54426      .   S
    C185   O431      0.67423      .   S
    C285   O431      0.67423      .   S
    C168   O432      0.54426      .   S
    C56    O432      0.54426      .   S
    C168   O433      0.67421      .   S
    C285   O433      0.67421      .   S
    C184   O434      0.54423      .   S
    C64    O434      0.54423      .   S
    C184   O435      0.67399      .   S
    C284   O435      0.67399  1_565   S
    C169   O436      0.54395      .   S
    C57    O436      0.54395      .   S
    C169   O437      0.67398      .   S
    C284   O437      0.67398      .   S
    C186   O438      0.54432      .   S
    C66    O438      0.54432      .   S
    C186   O439      0.67449      .   S
    C286   O439      0.67449      .   S
    C170   O440      0.54428      .   S
    C58    O440      0.54428      .   S
    C170   O441      0.67447      .   S
    C287   O441      0.67447      .   S
    C187   O442      0.54429      .   S
    C67    O442      0.54429      .   S
    C187   O443      0.67448      .   S
    C287   O443      0.67448      .   S
    C285   O444      1.05735      .   S
    C13    O444      1.05735      .   S
    C284   O445      1.05840      .   S
    C12    O445      1.05840      .   S
    C286   O446      1.05668      .   S
    C14    O446      1.05668      .   S
    C287   O447      1.05721      .   S
    C15    O447      1.05721      .   S
    C369   O448      0.67567      .   S
    C145   O448      0.67567      .   S
    C368   O449      0.67603      .   S
    C144   O449      0.67603      .   S
    C395   O450      0.67604      .   S
    C195   O450      0.67604      .   S
    C394   O451      0.67605      .   S
    C194   O451      0.67605      .   S
    C370   O452      0.67621      .   S
    C146   O452      0.67621      .   S
    C392   O453      0.67551      .   S
    C192   O453      0.67551      .   S
    C393   O454      0.67603      .   S
    C193   O454      0.67603      .   S
    C371   O455      0.53740      .   S
    C255   O455      0.53740      .   S
    C399   O456      0.67766      .   S
    C199   O456      0.67766      .   S
    C373   O457      0.67768      .   S
    C149   O457      0.67768      .   S
    C372   O458      0.67760      .   S
    C148   O458      0.67760      .   S
    C398   O459      0.67746      .   S
    C198   O459      0.67746      .   S
    C374   O460      0.67769      .   S
    C150   O460      0.67769      .   S
    C396   O461      0.67770      .   S
    C196   O461      0.67770      .   S
    C375   O462      0.67773      .   S
    C151   O462      0.67773      .   S
    C397   O463      0.67773      .   S
    C197   O463      0.67773      .   S
    C255   O464      0.38099      .   S
    C147   O464      0.38099      .   S
    C192   O465      0.69377      .   S
    C196   O465      0.69377      .   S
    C192   O466      0.70323      .   S
    C264   O466      0.70323      .   S
    C145   O467      0.69376      .   S
    C149   O467      0.69376      .   S
    C145   O468      0.70301      .   S
    C253   O468      0.70301      .   S
    C198   O469      0.69376      .   S
    C194   O469      0.69376      .   S
    C198   O470      0.70427      .   S
    C270   O470      0.70427      .   S
    C149   O471      0.70417      .   S
    C257   O471      0.70417      .   S
    C148   O472      0.69376      .   S
    C144   O472      0.69376      .   S
    C148   O473      0.70415      .   S
    C256   O473      0.70415      .   S
    C199   O474      0.69376      .   S
    C195   O474      0.69376      .   S
    C199   O475      0.70419      .   S
    C271   O475      0.70419      .   S
    C150   O476      0.69378      .   S
    C146   O476      0.69378      .   S
    C150   O477      0.70461      .   S
    C258   O477      0.70461      .   S
    C197   O478      0.69382      .   S
    C193   O478      0.69382      .   S
    C197   O479      0.70428      .   S
    C269   O479      0.70428      .   S
    C196   O480      0.70450      .   S
    C268   O480      0.70450      .   S
    C151   O481      0.69383      .   S
    C147   O481      0.69383      .   S
    C151   O482      0.70439      .   S
    C259   O482      0.70439      .   S
    C195   O483      0.70266      .   S
    C267   O483      0.70266      .   S
    C144   O484      0.70264      .   S
    C252   O484      0.70264      .   S
    C194   O485      0.70263      .   S
    C266   O485      0.70263      .   S
    C146   O486      0.70256      .   S
    C254   O486      0.70256      .   S
    C193   O487      0.70265      .   S
    C265   O487      0.70265      .   S
    C311   O488      1.02275      .   S
    C14    O488      1.02275  1_545   S
    C311   O489      0.63685      .   S
    C263   O489      0.63685      .   S
    C313   O490      1.02271      .   S
    C13    O490      1.02271      .   S
    C313   O491      0.63632      .   S
    C249   O491      0.63632      .   S
    C312   O492      1.02245      .   S
    C12    O492      1.02245  1_565   S
    C312   O493      0.63638      .   S
    C248   O493      0.63638      .   S
    C310   O494      1.02243      .   S
    C15    O494      1.02243      .   S
    C310   O495      0.63623      .   S
    C262   O495      0.63623      .   S
    C314   O496      1.02662      .   S
    C14    O496      1.02662      .   S
    C314   O497      0.63696      .   S
    C250   O497      0.63696      .   S
    C308   O498      1.02660      .   S
    C13    O498      1.02660      .   S
    C308   O499      0.63627      .   S
    C260   O499      0.63627      .   S
    C309   O500      1.02584      .   S
    C12    O500      1.02584      .   S
    C309   O501      0.63631      .   S
    C261   O501      0.63631      .   S
    C315   O502      1.02574      .   S
    C15    O502      1.02574      .   S
    C315   O503      0.63624      .   S
    C251   O503      0.63624      .   S
    C12    O504      1.06205  1_565   S
    C332   O504      1.06205      .   S
    C15    O505      1.06230      .   S
    C330   O505      1.06230      .   S
    C329   O506      0.66858      .   S
    C257   O506      0.66858      .   S
    C329   O507      1.05777      .   S
    C8     O507      1.05777      .   S
    C335   O508      0.66857      .   S
    C271   O508      0.66857      .   S
    C335   O509      1.05785      .   S
    C9     O509      1.05785      .   S
    C253   O510      0.74696      .   S
    C249   O510      0.74696      .   S
    C253   O511      0.70260      .   S
    C177   O511      0.70260      .   S
    C328   O512      0.66861      .   S
    C256   O512      0.66861      .   S
    C328   O513      1.05795      .   S
    C9     O513      1.05795  1_655   S
    C334   O514      0.66862      .   S
    C270   O514      0.66862      .   S
    C334   O515      1.05804      .   S
    C8     O515      1.05804  1_465   S
    C252   O516      0.74699      .   S
    C248   O516      0.74699      .   S
    C252   O517      0.70259      .   S
    C176   O517      0.70259      .   S
    C254   O518      0.74692      .   S
    C250   O518      0.74692      .   S
    C254   O519      0.70266      .   S
    C178   O519      0.70266      .   S
    C264   O520      0.74692      .   S
    C260   O520      0.74692      .   S
    C264   O521      0.70266      .   S
    C160   O521      0.70266      .   S
    C267   O522      0.74695      .   S
    C263   O522      0.74695      .   S
    C267   O523      0.70261      .   S
    C163   O523      0.70261      .   S
    C250   O524      0.63647      .   S
    C306   O524      0.63647      .   S
    C266   O525      0.74699      .   S
    C262   O525      0.74699      .   S
    C266   O526      0.70260      .   S
    C162   O526      0.70260      .   S
    C249   O527      0.63620      .   S
    C305   O527      0.63620      .   S
    C260   O528      0.63638      .   S
    C316   O528      0.63638      .   S
    C271   O529      0.70426      .   S
    C167   O529      0.70426      .   S
    C270   O530      0.70420      .   S
    C166   O530      0.70420      .   S
    C269   O531      0.66854      .   S
    C333   O531      0.66854      .   S
    C269   O532      0.70421      .   S
    C165   O532      0.70421      .   S
    C268   O533      0.66835      .   S
    C332   O533      0.66835      .   S
    C268   O534      0.70452      .   S
    C164   O534      0.70452      .   S
    C256   O535      0.70423      .   S
    C180   O535      0.70423      .   S
    C265   O536      0.74732      .   S
    C261   O536      0.74732      .   S
    C265   O537      0.70256      .   S
    C161   O537      0.70256      .   S
    C257   O538      0.70416      .   S
    C181   O538      0.70416      .   S
    C248   O539      0.63611      .   S
    C304   O539      0.63611      .   S
    C251   O540      0.63629      .   S
    C307   O540      0.63629      .   S
    C258   O541      0.66834      .   S
    C330   O541      0.66834      .   S
    C258   O542      0.70443      .   S
    C182   O542      0.70443      .   S
    C259   O543      0.66854      .   S
    C331   O543      0.66854      .   S
    C259   O544      0.70424      .   S
    C183   O544      0.70424      .   S
    C261   O545      0.63621      .   S
    C317   O545      0.63621      .   S
    C262   O546      0.63631      .   S
    C318   O546      0.63631      .   S
    C263   O547      0.63611      .   S
    C319   O547      0.63611      .   S
    C333   O548      1.05735      .   S
    C11    O548      1.05735      .   S
    C331   O549      1.05756      .   S
    C10    O549      1.05756      .   S
    C11    O550      1.02583      .   S
    C307   O550      1.02583      .   S
    C11    O551      1.02195      .   S
    C316   O551      1.02195      .   S
    C11    O552      1.05748      .   S
    C283   O552      1.05748      .   S
    C10    O553      1.02569      .   S
    C317   O553      1.02569      .   S
    C10    O554      1.02210  1_565   S
    C306   O554      1.02210      .   S
    C10    O555      1.05748      .   S
    C282   O555      1.05748  1_545   S
    C9     O556      1.02717      .   S
    C318   O556      1.02717      .   S
    C9     O557      1.02713  1_655   S
    C305   O557      1.02713      .   S
    C9     O558      1.05615      .   S
    C281   O558      1.05615      .   S
    C8     O559      1.02712  1_565   S
    C304   O559      1.02712      .   S
    C8     O560      1.02724  1_455   S
    C319   O560      1.02724      .   S
    C8     O561      1.05615      .   S
    C280   O561      1.05615  1_645   S
    C177   O562      0.69369      .   S
    C181   O562      0.69369      .   S
    C177   O563      0.67616      .   S
    C385   O563      0.67616      .   S
    C163   O564      0.69370      .   S
    C167   O564      0.69370      .   S
    C163   O565      0.67614      .   S
    C379   O565      0.67614      .   S
    C176   O566      0.69370      .   S
    C180   O566      0.69370      .   S
    C176   O567      0.67602      .   S
    C384   O567      0.67602      .   S
    C160   O568      0.69380      .   S
    C164   O568      0.69380      .   S
    C160   O569      0.67612      .   S
    C376   O569      0.67612      .   S
    C178   O570      0.69381      .   S
    C182   O570      0.69381      .   S
    C178   O571      0.67616      .   S
    C386   O571      0.67616      .   S
    C162   O572      0.69369      .   S
    C166   O572      0.69369      .   S
    C162   O573      0.67600      .   S
    C378   O573      0.67600      .   S
    C161   O574      0.69380      .   S
    C165   O574      0.69380      .   S
    C161   O575      0.67618      .   S
    C377   O575      0.67618      .   S
    C179   O576      0.69380      .   S
    C183   O576      0.69380      .   S
    C179   O577      0.67610      .   S
    C387   O577      0.67610      .   S
    C165   O578      0.67778      .   S
    C381   O578      0.67778      .   S
    C164   O579      0.67771      .   S
    C380   O579      0.67771      .   S
    C182   O580      0.67772      .   S
    C390   O580      0.67772      .   S
    C181   O581      0.67767      .   S
    C389   O581      0.67767      .   S
    C183   O582      0.67767      .   S
    C391   O582      0.67767      .   S
    C167   O583      0.67755      .   S
    C383   O583      0.67755      .   S
    C166   O584      0.67758      .   S
    C382   O584      0.67758      .   S
    C180   O585      0.67758      .   S
    C388   O585      0.67758      .   S
    C280   O586      0.67451  1_655   S
    C152   O586      0.67451      .   S
    C280   O587      0.67462  1_545   S
    C203   O587      0.67462      .   S
    C281   O588      0.67452  1_655   S
    C153   O588      0.67452      .   S
    C281   O589      0.67453      .   S
    C202   O589      0.67453      .   S
    C282   O590      0.67455  1_545   S
    C201   O590      0.67455      .   S
    C282   O591      0.67444      .   S
    C154   O591      0.67444      .   S
    C283   O592      0.67443      .   S
    C155   O592      0.67443      .   S
    C283   O593      0.67442      .   S
    C200   O593      0.67442      .   S
    C51    O594      0.54429      .   S
    C155   O594      0.54429      .   S
    C73    O595      0.54448      .   S
    C201   O595      0.54448      .   S
    C50    O596      0.54490      .   S
    C154   O596      0.54490      .   S
    C48    O597      0.54431      .   S
    C152   O597      0.54431      .   S
    C49    O598      0.54430      .   S
    C153   O598      0.54430      .   S
    C75    O599      0.54434      .   S
    C203   O599      0.54434      .   S
    C74    O600      0.54436      .   S
    C202   O600      0.54436      .   S
    C72    O601      0.54422      .   S
    C200   O601      0.54422      .   S
    C155   O602      0.69439      .   S
    C159   O602      0.69439      .   S
    C152   O603      0.69436      .   S
    C156   O603      0.69436      .   S
    C201   O604      0.69437      .   S
    C205   O604      0.69437      .   S
    C153   O605      0.69436      .   S
    C157   O605      0.69436      .   S
    C202   O606      0.69436      .   S
    C206   O606      0.69436      .   S
    C203   O607      0.69436      .   S
    C207   O607      0.69436      .   S
    C154   O608      0.69422      .   S
    C158   O608      0.69422      .   S
    C200   O609      0.69380      .   S
    C204   O609      0.69380      .   S
    C159   O610      0.54388      .   S
    C55    O610      0.54388      .   S
    C159   O611      0.68908      .   S
    C219   O611      0.68908      .   S
    C157   O612      0.54385      .   S
    C53    O612      0.54385      .   S
    C157   O613      0.70275      .   S
    C217   O613      0.70275  1_655   S
    C156   O614      0.54355      .   S
    C52    O614      0.54355      .   S
    C156   O615      0.70275      .   S
    C216   O615      0.70275      .   S
    C205   O616      0.54387      .   S
    C77    O616      0.54387      .   S
    C205   O617      0.68921      .   S
    C218   O617      0.68921  1_545   S
    C207   O618      0.54387      .   S
    C79    O618      0.54387      .   S
    C207   O619      0.70284      .   S
    C216   O619      0.70284  1_445   S
    C206   O620      0.54387      .   S
    C78    O620      0.54387      .   S
    C206   O621      0.70276      .   S
    C217   O621      0.70276      .   S
    C158   O622      0.54387      .   S
    C54    O622      0.54387      .   S
    C158   O623      0.68916      .   S
    C218   O623      0.68916      .   S
    C204   O624      0.54415      .   S
    C76    O624      0.54415      .   S
    C204   O625      0.68948      .   S
    C219   O625      0.68948      .   S
    C219   O626      0.76930      .   S
    C211   O626      0.76930      .   S
    C218   O627      0.76930      .   S
    C210   O627      0.76930      .   S
    C216   O628      0.74291      .   S
    C208   O628      0.74291      .   S
    C217   O629      0.74291      .   S
    C209   O629      0.74291      .   S
    C211   O630      0.70279      .   S
    C143   O630      0.70279      .   S
    C211   O631      0.70275      .   S
    C92    O631      0.70275      .   S
    C210   O632      0.70275      .   S
    C142   O632      0.70275      .   S
    C210   O633      0.70286  1_545   S
    C93    O633      0.70286      .   S
    C209   O634      0.70282  1_655   S
    C141   O634      0.70282      .   S
    C209   O635      0.70284      .   S
    C94    O635      0.70284      .   S
    C208   O636      0.70281      .   S
    C140   O636      0.70281      .   S
    C208   O637      0.70292  1_445   S
    C95    O637      0.70292      .   S
    C46    O638      0.54430      .   S
    C142   O638      0.54430      .   S
    C47    O639      0.54390      .   S
    C143   O639      0.54390      .   S
    C44    O640      0.54387      .   S
    C140   O640      0.54387      .   S
    C45    O641      0.54387      .   S
    C141   O641      0.54387      .   S
    C23    O642      0.54390      .   S
    C95    O642      0.54390      .   S
    C22    O643      0.54391      .   S
    C94    O643      0.54391      .   S
    C21    O644      0.54391      .   S
    C93    O644      0.54391      .   S
    C20    O645      0.54390      .   S
    C92    O645      0.54390      .   S
    C143   O646      0.69433      .   S
    C139   O646      0.69433      .   S
    C142   O647      0.69434      .   S
    C138   O647      0.69434      .   S
    C140   O648      0.69436      .   S
    C136   O648      0.69436      .   S
    C141   O649      0.69436      .   S
    C137   O649      0.69436      .   S
    C95    O650      0.69436      .   S
    C91    O650      0.69436      .   S
    C94    O651      0.69436      .   S
    C90    O651      0.69436      .   S
    C93    O652      0.68908      .   S
    C89    O652      0.68908      .   S
    C92    O653      0.69439      .   S
    C88    O653      0.69439      .   S
    C89    O654      0.54713      .   S
    C17    O654      0.54713      .   S
    C89    O655      0.67674      .   S
    C274   O655      0.67674      .   S
    C139   O656      0.54425      .   S
    C43    O656      0.54425      .   S
    C139   O657      0.67391      .   S
    C275   O657      0.67391      .   S
    C138   O658      0.54422      .   S
    C42    O658      0.54422      .   S
    C138   O659      0.67391      .   S
    C274   O659      0.67391  1_565   S
    C137   O660      0.54428      .   S
    C41    O660      0.54428      .   S
    C137   O661      0.67453      .   S
    C273   O661      0.67453      .   S
    C136   O662      0.54435      .   S
    C40    O662      0.54435      .   S
    C136   O663      0.67453      .   S
    C272   O663      0.67453      .   S
    C91    O664      0.54380      .   S
    C19    O664      0.54380      .   S
    C91    O665      0.67460      .   S
    C272   O665      0.67460  1_445   S
    C90    O666      0.54380      .   S
    C18    O666      0.54380      .   S
    C90    O667      0.67452      .   S
    C273   O667      0.67452  1_455   S
    C88    O668      0.54426      .   S
    C16    O668      0.54426      .   S
    C88    O669      0.67392      .   S
    C275   O669      0.67392      .   S
    C274   O670      1.05841      .   S
    C2     O670      1.05841      .   S
    C275   O671      1.05841      .   S
    C3     O671      1.05841      .   S
    C272   O672      1.05575  1_545   S
    C0     O672      1.05575      .   S
    C273   O673      1.05575      .   S
    C1     O673      1.05575      .   S
    C353   O674      0.67648      .   S
    C113   O674      0.67648      .   S
    C346   O675      0.67609      .   S
    C98    O675      0.67609      .   S
    C347   O676      0.67609      .   S
    C99    O676      0.67609      .   S
    C352   O677      0.67613      .   S
    C112   O677      0.67613      .   S
    C344   O678      0.67612      .   S
    C96    O678      0.67612      .   S
    C345   O679      0.67612      .   S
    C97    O679      0.67612      .   S
    C355   O680      0.67604      .   S
    C115   O680      0.67604      .   S
    C354   O681      0.67604      .   S
    C114   O681      0.67604      .   S
    C349   O682      0.67767      .   S
    C101   O682      0.67767      .   S
    C348   O683      0.67767      .   S
    C100   O683      0.67767      .   S
    C359   O684      0.67757      .   S
    C119   O684      0.67757      .   S
    C358   O685      0.67757      .   S
    C118   O685      0.67757      .   S
    C357   O686      0.67780      .   S
    C117   O686      0.67780      .   S
    C356   O687      0.67780      .   S
    C116   O687      0.67780      .   S
    C351   O688      0.67770      .   S
    C103   O688      0.67770      .   S
    C350   O689      0.67770      .   S
    C102   O689      0.67770      .   S
    C327   O690      0.96465      .   S
    C2     O690      0.96465      .   S
    C100   O691      0.69369      .   S
    C96    O691      0.69369      .   S
    C100   O692      0.70414      .   S
    C244   O692      0.70414      .   S
    C101   O693      0.69370      .   S
    C97    O693      0.69370      .   S
    C101   O694      0.70413      .   S
    C245   O694      0.70413      .   S
    C118   O695      0.69370      .   S
    C114   O695      0.69370      .   S
    C118   O696      0.70423      .   S
    C234   O696      0.70423      .   S
    C119   O697      0.69370      .   S
    C115   O697      0.69370      .   S
    C119   O698      0.70423      .   S
    C235   O698      0.70423      .   S
    C116   O699      0.69384      .   S
    C112   O699      0.69384      .   S
    C116   O700      0.70443      .   S
    C232   O700      0.70443      .   S
    C117   O701      0.69385      .   S
    C113   O701      0.69385      .   S
    C117   O702      0.70443      .   S
    C233   O702      0.70443      .   S
    C103   O703      0.69376      .   S
    C99    O703      0.69376      .   S
    C103   O704      0.70421      .   S
    C247   O704      0.70421      .   S
    C102   O705      0.69375      .   S
    C98    O705      0.69375      .   S
    C102   O706      0.70422      .   S
    C246   O706      0.70422      .   S
    C112   O707      0.70265      .   S
    C228   O707      0.70265      .   S
    C113   O708      0.70264      .   S
    C229   O708      0.70264      .   S
    C96    O709      0.70261      .   S
    C240   O709      0.70261      .   S
    C98    O710      0.70269      .   S
    C242   O710      0.70269      .   S
    C97    O711      0.70261      .   S
    C241   O711      0.70261      .   S
    C99    O712      0.70269      .   S
    C243   O712      0.70269      .   S
    C114   O713      0.70259      .   S
    C230   O713      0.70259      .   S
    C115   O714      0.70259      .   S
    C231   O714      0.70259      .   S
    C303   O715      1.02212      .   S
    C3     O715      1.02212      .   S
    C303   O716      0.63653      .   S
    C239   O716      0.63653      .   S
    C290   O717      1.02716      .   S
    C1     O717      1.02716  1_455   S
    C290   O718      0.63616      .   S
    C226   O718      0.63616      .   S
    C291   O719      1.02726      .   S
    C0     O719      1.02726  1_455   S
    C291   O720      0.63612      .   S
    C227   O720      0.63612      .   S
    C302   O721      1.02218      .   S
    C2     O721      1.02218  1_565   S
    C302   O722      0.63638      .   S
    C238   O722      0.63638      .   S
    C300   O723      1.02713      .   S
    C0     O723      1.02713  1_565   S
    C300   O724      0.63621      .   S
    C236   O724      0.63621      .   S
    C301   O725      1.02713      .   S
    C1     O725      1.02713      .   S
    C301   O726      0.63611      .   S
    C237   O726      0.63611      .   S
    C289   O727      1.02569      .   S
    C2     O727      1.02569      .   S
    C289   O728      0.63630      .   S
    C225   O728      0.63630      .   S
    C288   O729      1.02566      .   S
    C3     O729      1.02566      .   S
    C288   O730      0.63623      .   S
    C224   O730      0.63623      .   S
    C1     O731      1.05789      .   S
    C324   O731      1.05789      .   S
    C1     O732      1.05817  1_455   S
    C323   O732      1.05817      .   S
    C0     O733      1.05788      .   S
    C325   O733      1.05788      .   S
    C0     O734      1.05817  1_465   S
    C322   O734      1.05817      .   S
    C3     O735      1.05762      .   S
    C326   O735      1.05762      .   S
    C320   O736      0.66838      .   S
    C232   O736      0.66838      .   S
    C320   O737      1.06235      .   S
    C4     O737      1.06235  1_565   S
    C321   O738      0.66838      .   S
    C233   O738      0.66838      .   S
    C321   O739      1.06234      .   S
    C5     O739      1.06234      .   S
    C237   O740      0.74699      .   S
    C241   O740      0.74699      .   S
    C237   O741      0.63639      .   S
    C293   O741      0.63639      .   S
    C224   O742      0.74729      .   S
    C228   O742      0.74729      .   S
    C224   O743      0.63633      .   S
    C296   O743      0.63633      .   S
    C225   O744      0.74730      .   S
    C229   O744      0.74730      .   S
    C225   O745      0.63631      .   S
    C297   O745      0.63631      .   S
    C232   O746      0.70452      .   S
    C84    O746      0.70452      .   S
    C233   O747      0.70452      .   S
    C85    O747      0.70452      .   S
    C326   O748      0.66850      .   S
    C246   O748      0.66850      .   S
    C236   O749      0.74699      .   S
    C240   O749      0.74699      .   S
    C236   O750      0.63626      .   S
    C292   O750      0.63626      .   S
    C245   O751      0.66859      .   S
    C325   O751      0.66859      .   S
    C245   O752      0.70419      .   S
    C133   O752      0.70419      .   S
    C244   O753      0.66859      .   S
    C324   O753      0.66859      .   S
    C244   O754      0.70419      .   S
    C132   O754      0.70419      .   S
    C229   O755      0.70261      .   S
    C81    O755      0.70261      .   S
    C228   O756      0.70261      .   S
    C80    O756      0.70261      .   S
    C235   O757      0.66860      .   S
    C323   O757      0.66860      .   S
    C235   O758      0.70414      .   S
    C87    O758      0.70414      .   S
    C234   O759      0.66860      .   S
    C322   O759      0.66860      .   S
    C234   O760      0.70414      .   S
    C86    O760      0.70414      .   S
    C227   O761      0.74696      .   S
    C231   O761      0.74696      .   S
    C227   O762      0.63636      .   S
    C299   O762      0.63636      .   S
    C247   O763      0.70437      .   S
    C135   O763      0.70437      .   S
    C246   O764      0.70437      .   S
    C134   O764      0.70437      .   S
    C226   O765      0.74696      .   S
    C230   O765      0.74696      .   S
    C226   O766      0.63641      .   S
    C298   O766      0.63641      .   S
    C238   O767      0.74695      .   S
    C242   O767      0.74695      .   S
    C238   O768      0.63617      .   S
    C294   O768      0.63617      .   S
    C240   O769      0.70265      .   S
    C128   O769      0.70265      .   S
    C241   O770      0.70265      .   S
    C129   O770      0.70265      .   S
    C239   O771      0.74695      .   S
    C243   O771      0.74695      .   S
    C239   O772      0.63617      .   S
    C295   O772      0.63617      .   S
    C230   O773      0.70266      .   S
    C82    O773      0.70266      .   S
    C243   O774      0.70261      .   S
    C131   O774      0.70261      .   S
    C242   O775      0.70261      .   S
    C130   O775      0.70261      .   S
    C231   O776      0.70265      .   S
    C83    O776      0.70265      .   S
    C5     O777      1.02581      .   S
    C296   O777      1.02581      .   S
    C5     O778      1.02247      .   S
    C293   O778      1.02247      .   S
    C5     O779      1.05734      .   S
    C277   O779      1.05734      .   S
    C4     O780      1.02585      .   S
    C297   O780      1.02585      .   S
    C4     O781      1.02247  1_565   S
    C292   O781      1.02247      .   S
    C4     O782      1.05734      .   S
    C276   O782      1.05734      .   S
    C6     O783      1.02653      .   S
    C294   O783      1.02653      .   S
    C6     O784      1.02270  1_545   S
    C299   O784      1.02270      .   S
    C6     O785      1.05668      .   S
    C278   O785      1.05668      .   S
    C7     O786      1.02653      .   S
    C295   O786      1.02653      .   S
    C7     O787      1.02268      .   S
    C298   O787      1.02268      .   S
    C7     O788      1.05681      .   S
    C279   O788      1.05681      .   S
    C80    O789      0.69384      .   S
    C84    O789      0.69384      .   S
    C80    O790      0.67622      .   S
    C336   O790      0.67622      .   S
    C81    O791      0.69384      .   S
    C85    O791      0.69384      .   S
    C81    O792      0.67622      .   S
    C337   O792      0.67622      .   S
    C130   O793      0.69376      .   S
    C134   O793      0.69376      .   S
    C130   O794      0.67603      .   S
    C362   O794      0.67603      .   S
    C129   O795      0.69376      .   S
    C133   O795      0.69376      .   S
    C129   O796      0.67608      .   S
    C361   O796      0.67608      .   S
    C131   O797      0.69377      .   S
    C135   O797      0.69377      .   S
    C131   O798      0.67602      .   S
    C363   O798      0.67602      .   S
    C128   O799      0.69377      .   S
    C132   O799      0.69377      .   S
    C128   O800      0.67607      .   S
    C360   O800      0.67607      .   S
    C85    O801      0.67748      .   S
    C341   O801      0.67748      .   S
    C84    O802      0.67749      .   S
    C340   O802      0.67749      .   S
    C83    O803      0.69376      .   S
    C87    O803      0.69376      .   S
    C83    O804      0.67599      .   S
    C339   O804      0.67599      .   S
    C82    O805      0.69375      .   S
    C86    O805      0.69375      .   S
    C82    O806      0.67600      .   S
    C338   O806      0.67600      .   S
    C133   O807      0.67767      .   S
    C365   O807      0.67767      .   S
    C134   O808      0.67770      .   S
    C366   O808      0.67770      .   S
    C135   O809      0.67770      .   S
    C367   O809      0.67770      .   S
    C132   O810      0.67767      .   S
    C364   O810      0.67767      .   S
    C87    O811      0.67759      .   S
    C343   O811      0.67759      .   S
    C86    O812      0.67759      .   S
    C342   O812      0.67759      .   S
    C277   O813      0.67440      .   S
    C120   O813      0.67440      .   S
    C277   O814      0.67441      .   S
    C105   O814      0.67441      .   S
    C276   O815      0.67448      .   S
    C121   O815      0.67448      .   S
    C276   O816      0.67445  1_565   S
    C104   O816      0.67445      .   S
    C278   O817      0.67446      .   S
    C106   O817      0.67446      .   S
    C278   O818      0.67447  1_545   S
    C123   O818      0.67447      .   S
    C279   O819      0.66977      .   S
    C122   O819      0.66977      .   S
    C279   O820      0.67447      .   S
    C107   O820      0.67447      .   S
    C24    O821      0.54466      .   S
    C104   O821      0.54466      .   S
    C32    O822      0.54429      .   S
    C120   O822      0.54429      .   S
    C25    O823      0.54428      .   S
    C105   O823      0.54428      .   S
    C33    O824      0.54429      .   S
    C121   O824      0.54429      .   S
    C26    O825      0.54427      .   S
    C106   O825      0.54427      .   S
    C27    O826      0.54433      .   S
    C107   O826      0.54433      .   S
    C35    O827      0.54424      .   S
    C123   O827      0.54424      .   S
    C34    O828      0.53934      .   S
    C122   O828      0.53934      .   S
    C122   O829      0.70350      .   S
    C126   O829      0.70350      .   S
    C120   O830      0.69436      .   S
    C124   O830      0.69436      .   S
    C105   O831      0.69436      .   S
    C109   O831      0.69436      .   S
    C121   O832      0.69436      .   S
    C125   O832      0.69436      .   S
    C104   O833      0.69436      .   S
    C108   O833      0.69436      .   S
    C106   O834      0.69437      .   S
    C110   O834      0.69437      .   S
    C107   O835      0.69437      .   S
    C111   O835      0.69437      .   S
    C123   O836      0.69436      .   S
    C127   O836      0.69436      .   S
    C124   O837      0.54387      .   S
    C36    O837      0.54387      .   S
    C124   O838      0.70279      .   S
    C213   O838      0.70279      .   S
    C109   O839      0.54389      .   S
    C29    O839      0.54389      .   S
    C109   O840      0.70275      .   S
    C213   O840      0.70275      .   S
    C125   O841      0.54389      .   S
    C37    O841      0.54389      .   S
    C125   O842      0.70221      .   S
    C212   O842      0.70221  1_545   S
    C108   O843      0.54388      .   S
    C28    O843      0.54388      .   S
    C108   O844      0.70220      .   S
    C212   O844      0.70220      .   S
    C110   O845      0.54390      .   S
    C30    O845      0.54390      .   S
    C110   O846      0.70269      .   S
    C214   O846      0.70269  1_565   S
    C127   O847      0.54384      .   S
    C39    O847      0.54384      .   S
    C127   O848      0.70266      .   S
    C214   O848      0.70266      .   S
    C111   O849      0.54385      .   S
    C31    O849      0.54385      .   S
    C111   O850      0.70280      .   S
    C215   O850      0.70280      .   S
    C126   O851      0.54389      .   S
    C38    O851      0.54389      .   S
    C126   O852      0.70281      .   S
    C215   O852      0.70281      .   S
    C320   O853      1.06358      .   S
    C2     O853      1.06358  1_565   S
    C321   O854      1.06362      .   S
    C3     O854      1.06362      .   S
    C322   O855      1.05890      .   S
    C6     O855      1.05890      .   S
    C323   O856      1.05893      .   S
    C7     O856      1.05893      .   S
    C324   O857      1.06001      .   S
    C5     O857      1.06001      .   S
    C325   O858      1.06011      .   S
    C4     O858      1.06011      .   S
    C326   O859      1.06028      .   S
    C7     O859      1.06028      .   S
    C328   O860      1.05894      .   S
    C13    O860      1.05894      .   S
    C329   O861      1.05995      .   S
    C12    O861      1.05995      .   S
    C330   O862      1.06385      .   S
    C11    O862      1.06385      .   S
    C331   O863      1.06040      .   S
    C14    O863      1.06040  1_545   S
    C332   O864      1.06388      .   S
    C10    O864      1.06388  1_565   S
    C333   O865      1.06032      .   S
    C13    O865      1.06032      .   S
    C334   O866      1.05888      .   S
    C14    O866      1.05888      .   S
    C335   O867      1.05996      .   S
    C15    O867      1.05996      .   S
