# CIF file generated by openbabel 2.4.90, see http://openbabel.sf.net
data_I
_chemical_name_common ''
_cell_length_a 12.906
_cell_length_b 14.615
_cell_length_c 15.125
_cell_angle_alpha 90.005
_cell_angle_beta 90.014
_cell_angle_gamma 89.976
_space_group_name_H-M_alt 'P 1'
_space_group_name_Hall 'P 1'
loop_
    _symmetry_equiv_pos_as_xyz
    x,y,z
loop_
    _atom_site_label
    _atom_site_type_symbol
    _atom_site_fract_x
    _atom_site_fract_y
    _atom_site_fract_z
    _atom_site_occupancy
    Zr0     Zr   0.43310   0.79656   0.46521   1.000
    Zr1     Zr   0.93263   0.79731   0.46586   1.000
    Zr2     Zr   0.31691   0.20174   0.96431   1.000
    Zr3     Zr   0.81679   0.20124   0.96631   1.000
    Zr4     Zr   0.06685   0.29762   0.03462   1.000
    Zr5     Zr   0.56678   0.29646   0.03482   1.000
    Zr6     Zr   0.18309   0.70184   0.53390   1.000
    Zr7     Zr   0.68276   0.70147   0.53559   1.000
    N8      N    0.54031   0.94889   0.83147   1.000
    O9      O    0.59543   0.84700   0.71253   1.000
    O10     O    0.50392   0.89334   0.67745   1.000
    O11     O    0.63530   0.07350   0.88714   1.000
    O12     O    0.47196   0.06292   0.89964   1.000
    N13     N    0.04083   0.95065   0.82976   1.000
    O14     O    0.00358   0.89523   0.67665   1.000
    O15     O    0.09620   0.84895   0.71032   1.000
    O16     O    0.13540   0.07493   0.88574   1.000
    O17     O    0.97220   0.06373   0.89933   1.000
    N18     N    0.79026   0.54859   0.17035   1.000
    O19     O    0.75344   0.60393   0.32401   1.000
    O20     O    0.84525   0.65057   0.28959   1.000
    O21     O    0.72183   0.43502   0.10126   1.000
    O22     O    0.88517   0.42435   0.11418   1.000
    N23     N    0.70899   0.04898   0.33159   1.000
    O24     O    0.65376   0.15062   0.21217   1.000
    O25     O    0.61450   0.92431   0.38709   1.000
    O26     O    0.77750   0.93560   0.40052   1.000
    O27     O    0.74545   0.10417   0.17778   1.000
    N28     N    0.45961   0.44892   0.66855   1.000
    O29     O    0.49601   0.39332   0.82258   1.000
    O30     O    0.52783   0.56285   0.60032   1.000
    O31     O    0.40445   0.34711   0.78746   1.000
    O32     O    0.36458   0.57369   0.61297   1.000
    N33     N    0.29091   0.54903   0.16858   1.000
    O34     O    0.25438   0.60440   0.32239   1.000
    O35     O    0.38536   0.42431   0.11299   1.000
    O36     O    0.34615   0.65065   0.28798   1.000
    O37     O    0.22225   0.43574   0.09971   1.000
    N38     N    0.20982   0.04893   0.32956   1.000
    O39     O    0.15473   0.15088   0.21048   1.000
    O40     O    0.11459   0.92473   0.38604   1.000
    O41     O    0.27816   0.93530   0.39868   1.000
    O42     O    0.24646   0.10416   0.17582   1.000
    N43     N    0.95183   0.45003   0.67052   1.000
    O44     O    0.86074   0.57433   0.61442   1.000
    O45     O    0.99177   0.39499   0.82397   1.000
    O46     O    0.90007   0.34813   0.78979   1.000
    O47     O    0.02414   0.56354   0.60107   1.000
    O48     O    0.80349   0.40574   0.09062   1.000
    O49     O    0.94236   0.59285   0.59052   1.000
    O50     O    0.19643   0.90624   0.40945   1.000
    O51     O    0.44625   0.59200   0.58926   1.000
    O52     O    0.30383   0.40620   0.08874   1.000
    O53     O    0.05380   0.09336   0.90986   1.000
    O54     O    0.55361   0.09195   0.91077   1.000
    O55     O    0.69597   0.90608   0.41132   1.000
loop_
    _geom_bond_atom_site_label_1
    _geom_bond_atom_site_label_2
    _geom_bond_distance
    _geom_bond_site_symmetry_2
    _ccdc_geom_bond_type
    N8     O9        2.44114      .   S
    Zr7    O9        3.59930      .   S
    N8     O10       2.51127      .   S
    Zr0    O10       3.62480      .   S
    N8     O11       2.35144  1_565   S
    Zr3    O11       3.22612      .   S
    N8     O12       2.14879  1_565   S
    Zr2    O12       3.01236      .   S
    N13    O14       2.49992      .   S
    Zr1    O14       3.61249  1_655   S
    N13    O15       2.44592      .   S
    Zr6    O15       3.60542      .   S
    N13    O16       2.34658  1_565   S
    Zr2    O16       3.21509      .   S
    N13    O17       2.14990  1_465   S
    Zr3    O17       3.01425      .   S
    N18    O19       2.50631      .   S
    Zr7    O19       3.61996      .   S
    N18    O20       2.44492      .   S
    Zr1    O20       3.60264      .   S
    N18    O21       2.15102      .   S
    Zr5    O21       3.01956      .   S
    N18    O22       2.34898      .   S
    Zr4    O22       3.22081  1_455   S
    N23    O24       2.44461      .   S
    Zr5    O24       3.60495      .   S
    N23    O25       2.34828  1_545   S
    Zr0    O25       3.21993      .   S
    N23    O26       2.14784  1_545   S
    Zr1    O26       3.01095      .   S
    N23    O27       2.50697      .   S
    Zr3    O27       3.61862  1_556   S
    N28    O29       2.51148      .   S
    Zr5    O29       3.62518  1_554   S
    N28    O30       2.14821      .   S
    Zr7    O30       3.01088      .   S
    N28    O31       2.44074      .   S
    Zr2    O31       3.59858      .   S
    N28    O32       2.35253      .   S
    Zr6    O32       3.22790      .   S
    N33    O34       2.50777      .   S
    Zr6    O34       3.62059      .   S
    N33    O35       2.34818      .   S
    Zr5    O35       3.22007      .   S
    N33    O36       2.44446      .   S
    Zr0    O36       3.60449      .   S
    N33    O37       2.14756      .   S
    Zr4    O37       3.01132      .   S
    N38    O39       2.44303      .   S
    Zr4    O39       3.59979      .   S
    N38    O40       2.35329  1_545   S
    Zr1    O40       3.23188  1_655   S
    N38    O41       2.15119  1_545   S
    Zr0    O41       3.01960      .   S
    N38    O42       2.50664      .   S
    Zr2    O42       3.61912  1_556   S
    N43    O44       2.32382      .   S
    Zr7    O44       3.18522      .   S
    N43    O45       2.50988      .   S
    Zr4    O45       3.62115  1_454   S
    N43    O46       2.43322      .   S
    Zr3    O46       3.59115      .   S
    N43    O47       2.17450  1_655   S
    Zr6    O47       3.05465      .   S
    Zr3    O48       3.53488  1_556   S
    N18    O48       2.41695      .   S
    Zr1    O49       3.53569      .   S
    N43    O49       2.41573      .   S
    Zr6    O50       3.53524      .   S
    N38    O50       2.41659  1_545   S
    Zr0    O51       3.53385      .   S
    N28    O51       2.41679      .   S
    Zr2    O52       3.53534  1_556   S
    N33    O52       2.41717      .   S
    Zr4    O53       3.53560  1_554   S
    N13    O53       2.41782  1_565   S
    Zr5    O54       3.53301  1_554   S
    N8     O54       2.41637  1_565   S
    Zr7    O55       3.53645      .   S
    N23    O55       2.41759  1_545   S
