# CIF file generated by openbabel 2.4.90, see http://openbabel.sf.net
data_I
_chemical_name_common ''
_cell_length_a 12.906
_cell_length_b 14.615
_cell_length_c 15.125
_cell_angle_alpha 90.005
_cell_angle_beta 90.014
_cell_angle_gamma 89.976
_space_group_name_H-M_alt 'P 1'
_space_group_name_Hall 'P 1'
loop_
    _symmetry_equiv_pos_as_xyz
    x,y,z
loop_
    _atom_site_label
    _atom_site_type_symbol
    _atom_site_fract_x
    _atom_site_fract_y
    _atom_site_fract_z
    _atom_site_occupancy
    N0      N    0.29091   0.54903   0.16858   1.000
    N1      N    0.79026   0.54859   0.17035   1.000
    N2      N    0.04083   0.95065   0.82976   1.000
    N3      N    0.54031   0.94889   0.83147   1.000
    N4      N    0.20982   0.04893   0.32956   1.000
    N5      N    0.70899   0.04898   0.33159   1.000
    N6      N    0.45961   0.44892   0.66855   1.000
    N7      N    0.95183   0.45003   0.67052   1.000
    Zr8     Zr   0.68276   0.70147   0.53559   1.000
    O9      O    0.60530   0.63216   0.56796   1.000
    O10     O    0.71810   0.65270   0.42980   1.000
    O11     O    0.77175   0.63790   0.57501   1.000
    O12     O    0.63910   0.77424   0.62406   1.000
    Zr13    Zr   0.56678   0.29646   0.03482   1.000
    O14     O    0.53139   0.34489   0.92870   1.000
    O15     O    0.47607   0.36038   0.07390   1.000
    O16     O    0.64431   0.36574   0.06804   1.000
    O17     O    0.61027   0.22354   0.12350   1.000
    Zr18    Zr   0.06685   0.29762   0.03462   1.000
    O19     O    0.14455   0.36668   0.06716   1.000
    O20     O    0.02931   0.34631   0.92930   1.000
    O21     O    0.97601   0.36099   0.07440   1.000
    O22     O    0.11079   0.22425   0.12255   1.000
    Zr23    Zr   0.31691   0.20174   0.96431   1.000
    O24     O    0.39443   0.13233   0.93197   1.000
    O25     O    0.22616   0.13833   0.92502   1.000
    O26     O    0.28169   0.15295   0.07007   1.000
    O27     O    0.36068   0.27442   0.87588   1.000
    Zr28    Zr   0.43310   0.79656   0.46521   1.000
    O29     O    0.38962   0.72361   0.37660   1.000
    O30     O    0.46851   0.84495   0.57133   1.000
    O31     O    0.35563   0.86593   0.43195   1.000
    O32     O    0.52380   0.86044   0.42615   1.000
    Zr33    Zr   0.93263   0.79731   0.46586   1.000
    O34     O    0.88894   0.72394   0.37773   1.000
    O35     O    0.96810   0.84627   0.57126   1.000
    O36     O    0.02361   0.86102   0.42595   1.000
    O37     O    0.85507   0.86645   0.43319   1.000
    Zr38    Zr   0.18309   0.70184   0.53390   1.000
    O39     O    0.27384   0.63777   0.57344   1.000
    O40     O    0.13964   0.77540   0.62211   1.000
    O41     O    0.21874   0.65312   0.42814   1.000
    O42     O    0.10362   0.63269   0.56748   1.000
    Zr43    Zr   0.81679   0.20124   0.96631   1.000
    O44     O    0.85843   0.27468   0.87805   1.000
    O45     O    0.72605   0.13737   0.92672   1.000
    O46     O    0.89450   0.13249   0.93282   1.000
    O47     O    0.78112   0.15271   0.07205   1.000
    O48     O    0.93750   0.69508   0.52819   1.000
    O49     O    0.81014   0.30349   0.02846   1.000
    O50     O    0.06033   0.19549   0.97224   1.000
    O51     O    0.56020   0.19420   0.97279   1.000
    O52     O    0.43967   0.69428   0.52724   1.000
    O53     O    0.31037   0.30397   0.02653   1.000
    O54     O    0.68937   0.80378   0.47345   1.000
    O55     O    0.18976   0.80404   0.47168   1.000
loop_
    _geom_bond_atom_site_label_1
    _geom_bond_atom_site_label_2
    _geom_bond_distance
    _geom_bond_site_symmetry_2
    _ccdc_geom_bond_type
    Zr8    O9        1.50544      .   S
    N6     O9        3.60950      .   S
    Zr8    O10       1.80998      .   S
    N1     O10       4.31061      .   S
    Zr8    O11       1.59261      .   S
    N7     O11       3.87568      .   S
    Zr8    O12       1.79965      .   S
    N3     O12       4.24034      .   S
    Zr13   O14       1.81259  1_554   S
    N6     O14       4.31855      .   S
    Zr13   O15       1.61004      .   S
    N0     O15       3.91897      .   S
    Zr13   O16       1.50978      .   S
    N1     O16       3.61744      .   S
    Zr13   O17       1.80247      .   S
    N5     O17       4.24673      .   S
    Zr18   O19       1.50566      .   S
    N0     O19       3.60897      .   S
    Zr18   O20       1.81058  1_554   S
    N7     O20       4.31459  1_655   S
    Zr18   O21       1.61041  1_455   S
    N1     O21       3.92000      .   S
    Zr18   O22       1.79990      .   S
    N4     O22       4.24252      .   S
    Zr23   O24       1.50618      .   S
    N3     O24       3.61095  1_565   S
    Zr23   O25       1.60754      .   S
    N2     O25       3.91454  1_565   S
    Zr23   O26       1.80956  1_556   S
    N4     O26       4.31041      .   S
    Zr23   O27       1.79929      .   S
    N6     O27       4.23956      .   S
    Zr28   O29       1.80225      .   S
    N0     O29       4.24636      .   S
    Zr28   O30       1.81240      .   S
    N3     O30       4.31814      .   S
    Zr28   O31       1.50980      .   S
    N4     O31       3.61765  1_545   S
    Zr28   O32       1.60997      .   S
    N5     O32       3.91905  1_545   S
    Zr33   O34       1.80132      .   S
    N1     O34       4.24586      .   S
    Zr33   O35       1.80624      .   S
    N2     O35       4.30046  1_455   S
    Zr33   O36       1.61594  1_655   S
    N4     O36       3.93078  1_545   S
    Zr33   O37       1.50548      .   S
    N5     O37       3.60925  1_545   S
    Zr38   O39       1.61395      .   S
    N6     O39       3.92804      .   S
    Zr38   O40       1.80271      .   S
    N2     O40       4.24838      .   S
    Zr38   O41       1.81030      .   S
    N0     O41       4.31213      .   S
    Zr38   O42       1.52732      .   S
    N7     O42       3.66049  1_655   S
    Zr43   O44       1.79557      .   S
    N7     O44       4.22837      .   S
    Zr43   O45       1.61306      .   S
    N3     O45       3.92589  1_565   S
    Zr43   O46       1.50712      .   S
    N2     O46       3.61329  1_465   S
    Zr43   O47       1.80931  1_556   S
    N5     O47       4.31032      .   S
    Zr33   O48       1.76784      .   S
    N7     O48       4.18274      .   S
    Zr43   O49       1.76744  1_556   S
    N1     O49       4.18342      .   S
    Zr18   O50       1.76780  1_554   S
    N2     O50       4.18466  1_565   S
    Zr13   O51       1.76651  1_554   S
    N3     O51       4.18180  1_565   S
    Zr28   O52       1.76693      .   S
    N6     O52       4.18263      .   S
    Zr23   O53       1.76767  1_556   S
    N0     O53       4.18389      .   S
    Zr8    O54       1.76822      .   S
    N5     O54       4.18486  1_545   S
    Zr38   O55       1.76762      .   S
    N4     O55       4.18325  1_545   S
