# CIF file generated by openbabel 2.4.90, see http://openbabel.sf.net
data_I
_chemical_name_common ''
_cell_length_a 12.906
_cell_length_b 14.615
_cell_length_c 15.125
_cell_angle_alpha 90.005
_cell_angle_beta 90.014
_cell_angle_gamma 89.976
_space_group_name_H-M_alt 'P 1'
_space_group_name_Hall 'P 1'
loop_
    _symmetry_equiv_pos_as_xyz
    x,y,z
loop_
    _atom_site_label
    _atom_site_type_symbol
    _atom_site_fract_x
    _atom_site_fract_y
    _atom_site_fract_z
    _atom_site_occupancy
    Zr0     Zr   0.43310   0.79656   0.46521   1.000
    Zr1     Zr   0.93263   0.79731   0.46586   1.000
    Zr2     Zr   0.31691   0.20174   0.96431   1.000
    Zr3     Zr   0.81679   0.20124   0.96631   1.000
    Zr4     Zr   0.06685   0.29762   0.03462   1.000
    Zr5     Zr   0.56678   0.29646   0.03482   1.000
    Zr6     Zr   0.18309   0.70184   0.53390   1.000
    Zr7     Zr   0.68276   0.70147   0.53559   1.000
    N8      N    0.29091   0.54903   0.16858   1.000
    O9      O    0.22225   0.43574   0.09971   1.000
    O10     O    0.28477   0.41177   0.08213   1.000
    O11     O    0.34615   0.65065   0.28798   1.000
    O12     O    0.25438   0.60440   0.32239   1.000
    O13     O    0.32289   0.40063   0.09536   1.000
    O14     O    0.38536   0.42431   0.11299   1.000
    N15     N    0.79026   0.54859   0.17035   1.000
    O16     O    0.78434   0.41122   0.08414   1.000
    O17     O    0.72183   0.43502   0.10126   1.000
    O18     O    0.84525   0.65057   0.28959   1.000
    O19     O    0.75344   0.60393   0.32401   1.000
    O20     O    0.82265   0.40025   0.09710   1.000
    O21     O    0.88517   0.42435   0.11418   1.000
    N22     N    0.04083   0.95065   0.82976   1.000
    O23     O    0.13540   0.07493   0.88574   1.000
    O24     O    0.07289   0.09890   0.90331   1.000
    O25     O    0.97220   0.06373   0.89933   1.000
    O26     O    0.03472   0.08782   0.91641   1.000
    O27     O    0.09620   0.84895   0.71032   1.000
    O28     O    0.00358   0.89523   0.67665   1.000
    N29     N    0.54031   0.94889   0.83147   1.000
    O30     O    0.63530   0.07350   0.88714   1.000
    O31     O    0.57280   0.09730   0.90427   1.000
    O32     O    0.47196   0.06292   0.89964   1.000
    O33     O    0.53442   0.08660   0.91727   1.000
    O34     O    0.59543   0.84700   0.71253   1.000
    O35     O    0.50392   0.89334   0.67745   1.000
    N36     N    0.20982   0.04893   0.32956   1.000
    O37     O    0.11459   0.92473   0.38604   1.000
    O38     O    0.17720   0.90086   0.40305   1.000
    O39     O    0.27816   0.93530   0.39868   1.000
    O40     O    0.21566   0.91161   0.41585   1.000
    O41     O    0.15473   0.15088   0.21048   1.000
    O42     O    0.24646   0.10416   0.17582   1.000
    N43     N    0.70899   0.04898   0.33159   1.000
    O44     O    0.61450   0.92431   0.38709   1.000
    O45     O    0.67691   0.90053   0.40469   1.000
    O46     O    0.77750   0.93560   0.40052   1.000
    O47     O    0.71503   0.91163   0.41795   1.000
    O48     O    0.65376   0.15062   0.21217   1.000
    O49     O    0.74545   0.10417   0.17778   1.000
    N50     N    0.45961   0.44892   0.66855   1.000
    O51     O    0.42708   0.59737   0.59580   1.000
    O52     O    0.36458   0.57369   0.61297   1.000
    O53     O    0.46542   0.58663   0.58273   1.000
    O54     O    0.52783   0.56285   0.60032   1.000
    O55     O    0.40445   0.34711   0.78746   1.000
    O56     O    0.49601   0.39332   0.82258   1.000
    N57     N    0.95183   0.45003   0.67052   1.000
    O58     O    0.92320   0.59829   0.59699   1.000
    O59     O    0.86074   0.57433   0.61442   1.000
    O60     O    0.96152   0.58741   0.58406   1.000
    O61     O    0.02414   0.56354   0.60107   1.000
    O62     O    0.90007   0.34813   0.78979   1.000
    O63     O    0.99177   0.39499   0.82397   1.000
loop_
    _geom_bond_atom_site_label_1
    _geom_bond_atom_site_label_2
    _geom_bond_distance
    _geom_bond_site_symmetry_2
    _ccdc_geom_bond_type
    N8     O9        2.14756      .   S
    Zr4    O9        3.01132      .   S
    N8     O10       2.39579      .   S
    Zr2    O10       3.57328  1_556   S
    N8     O11       2.44446      .   S
    Zr0    O11       3.60449      .   S
    N8     O12       2.50777      .   S
    Zr6    O12       3.62059      .   S
    N8     O13       2.46980      .   S
    Zr2    O13       3.51897  1_556   S
    N8     O14       2.34818      .   S
    Zr5    O14       3.22007      .   S
    N15    O16       2.39508      .   S
    Zr3    O16       3.57315  1_556   S
    N15    O17       2.15102      .   S
    Zr5    O17       3.01956      .   S
    N15    O18       2.44492      .   S
    Zr1    O18       3.60264      .   S
    N15    O19       2.50631      .   S
    Zr7    O19       3.61996      .   S
    N15    O20       2.47007      .   S
    Zr3    O20       3.51818  1_556   S
    N15    O21       2.34898      .   S
    Zr4    O21       3.22081  1_455   S
    N22    O23       2.34658  1_565   S
    Zr2    O23       3.21509      .   S
    N22    O24       2.47049  1_565   S
    Zr4    O24       3.51918  1_554   S
    N22    O25       2.14990  1_465   S
    Zr3    O25       3.01425      .   S
    N22    O26       2.39635  1_565   S
    Zr4    O26       3.57356  1_554   S
    N22    O27       2.44592      .   S
    Zr6    O27       3.60542      .   S
    N22    O28       2.49992      .   S
    Zr1    O28       3.61249  1_655   S
    N29    O30       2.35144  1_565   S
    Zr3    O30       3.22612      .   S
    N29    O31       2.46831  1_565   S
    Zr5    O31       3.51798  1_554   S
    N29    O32       2.14879  1_565   S
    Zr2    O32       3.01236      .   S
    N29    O33       2.39571  1_565   S
    Zr5    O33       3.56966  1_554   S
    N29    O34       2.44114      .   S
    Zr7    O34       3.59930      .   S
    N29    O35       2.51127      .   S
    Zr0    O35       3.62480      .   S
    N36    O37       2.35329  1_545   S
    Zr1    O37       3.23188  1_655   S
    N36    O38       2.46923  1_545   S
    Zr6    O38       3.51907      .   S
    N36    O39       2.15119  1_545   S
    Zr0    O39       3.01960      .   S
    N36    O40       2.39520  1_545   S
    Zr6    O40       3.57299      .   S
    N36    O41       2.44303      .   S
    Zr4    O41       3.59979      .   S
    N36    O42       2.50664      .   S
    Zr2    O42       3.61912  1_556   S
    N43    O44       2.34828  1_545   S
    Zr0    O44       3.21993      .   S
    N43    O45       2.47021  1_545   S
    Zr7    O45       3.52006      .   S
    N43    O46       2.14784  1_545   S
    Zr1    O46       3.01095      .   S
    N43    O47       2.39620  1_545   S
    Zr7    O47       3.57440      .   S
    N43    O48       2.44461      .   S
    Zr5    O48       3.60495      .   S
    N43    O49       2.50697      .   S
    Zr3    O49       3.61862  1_556   S
    N50    O51       2.46862      .   S
    Zr0    O51       3.51903      .   S
    N50    O52       2.35253      .   S
    Zr6    O52       3.22790      .   S
    N50    O53       2.39623      .   S
    Zr0    O53       3.57029      .   S
    N50    O54       2.14821      .   S
    Zr7    O54       3.01088      .   S
    N50    O55       2.44074      .   S
    Zr2    O55       3.59858      .   S
    N50    O56       2.51148      .   S
    Zr5    O56       3.62518  1_554   S
    N57    O58       2.46332      .   S
    Zr1    O58       3.52284      .   S
    N57    O59       2.32382      .   S
    Zr7    O59       3.18522      .   S
    N57    O60       2.39951      .   S
    Zr1    O60       3.57012      .   S
    N57    O61       2.17450  1_655   S
    Zr6    O61       3.05465      .   S
    N57    O62       2.43322      .   S
    Zr3    O62       3.59115      .   S
    N57    O63       2.50988      .   S
    Zr4    O63       3.62115  1_454   S
