# CIF file generated by openbabel 2.4.90, see http://openbabel.sf.net
data_I
_chemical_name_common ''
_cell_length_a 12.906
_cell_length_b 14.615
_cell_length_c 15.125
_cell_angle_alpha 90.005
_cell_angle_beta 90.014
_cell_angle_gamma 89.976
_space_group_name_H-M_alt 'P 1'
_space_group_name_Hall 'P 1'
loop_
    _symmetry_equiv_pos_as_xyz
    x,y,z
loop_
    _atom_site_label
    _atom_site_type_symbol
    _atom_site_fract_x
    _atom_site_fract_y
    _atom_site_fract_z
    _atom_site_occupancy
    C0      C    0.43310   0.79656   0.46521   1.000
    C1      C    0.93263   0.79731   0.46586   1.000
    C2      C    0.31691   0.20174   0.96431   1.000
    C3      C    0.81679   0.20124   0.96631   1.000
    C4      C    0.06685   0.29762   0.03462   1.000
    C5      C    0.56678   0.29646   0.03482   1.000
    C6      C    0.18309   0.70184   0.53390   1.000
    C7      C    0.68276   0.70147   0.53559   1.000
    C8      C    0.37113   0.65021   0.74485   1.000
    C9      C    0.86991   0.65191   0.74503   1.000
    C10     C    0.38458   0.53392   0.86480   1.000
    C11     C    0.88182   0.53632   0.86576   1.000
    C12     C    0.48837   0.25843   0.71843   1.000
    C13     C    0.98635   0.25973   0.72165   1.000
    C14     C    0.54479   0.21875   0.56656   1.000
    C15     C    0.00000   0.21903   0.57041   1.000
    C16     C    0.55259   0.33923   0.45032   1.000
    C17     C    0.00000   0.33883   0.45354   1.000
    C18     C    0.50364   0.49851   0.48499   1.000
    C19     C    0.00000   0.49840   0.48699   1.000
    C20     C    0.37901   0.34712   0.24375   1.000
    C21     C    0.87931   0.34700   0.24561   1.000
    C22     C    0.36659   0.46289   0.36431   1.000
    C23     C    0.86622   0.46275   0.36613   1.000
    C24     C    0.26320   0.73941   0.21930   1.000
    C25     C    0.76138   0.73880   0.22118   1.000
    C26     C    0.20644   0.77989   0.06775   1.000
    C27     C    0.70462   0.77911   0.06953   1.000
    C28     C    0.19771   0.65991   0.95104   1.000
    C29     C    0.69708   0.65921   0.95270   1.000
    C30     C    0.24618   0.50036   0.98498   1.000
    C31     C    0.74651   0.49985   0.98661   1.000
    C32     C    0.13003   0.15247   0.75563   1.000
    C33     C    0.62877   0.15013   0.75521   1.000
    C34     C    0.11774   0.03709   0.63472   1.000
    C35     C    0.61541   0.03382   0.63520   1.000
    C36     C    0.01274   0.76058   0.77847   1.000
    C37     C    0.51160   0.75841   0.78160   1.000
    C38     C    0.95559   0.71965   0.92980   1.000
    C39     C    0.45522   0.71879   0.93348   1.000
    C40     C    0.94698   0.83920   0.04693   1.000
    C41     C    0.44743   0.83930   0.04971   1.000
    C42     C    0.99606   0.99874   0.01371   1.000
    C43     C    0.49629   0.99855   0.01501   1.000
    C44     C    0.12054   0.84738   0.25448   1.000
    C45     C    0.62083   0.84719   0.25635   1.000
    C46     C    0.13389   0.96294   0.13382   1.000
    C47     C    0.63329   0.96299   0.13584   1.000
    C48     C    0.23889   0.23904   0.27859   1.000
    C49     C    0.73676   0.23936   0.28090   1.000
    C50     C    0.29566   0.27940   0.43021   1.000
    C51     C    0.79366   0.27974   0.43248   1.000
    C52     C    0.30314   0.15958   0.54714   1.000
    C53     C    0.80240   0.15971   0.54916   1.000
    C54     C    0.25361   0.00027   0.51332   1.000
    C55     C    0.75384   0.00023   0.51519   1.000
    C56     C    0.43261   0.63922   0.58093   1.000
    C57     C    0.93295   0.63977   0.58160   1.000
    C58     C    0.43265   0.56200   0.64480   1.000
    C59     C    0.93231   0.56297   0.64593   1.000
    C60     C    0.39918   0.58156   0.72999   1.000
    C61     C    0.89790   0.58310   0.73074   1.000
    C62     C    0.40504   0.51558   0.79722   1.000
    C63     C    0.90284   0.51753   0.79837   1.000
    C64     C    0.43625   0.42700   0.77849   1.000
    C65     C    0.93410   0.42879   0.78037   1.000
    C66     C    0.46479   0.40213   0.69035   1.000
    C67     C    0.96344   0.40331   0.69260   1.000
    C68     C    0.46744   0.47164   0.62269   1.000
    C69     C    0.96698   0.47240   0.62458   1.000
    C70     C    0.49305   0.31105   0.66768   1.000
    C71     C    0.99166   0.31204   0.67064   1.000
    C72     C    0.52362   0.28898   0.58300   1.000
    C73     C    0.00000   0.28941   0.58631   1.000
    C74     C    0.52756   0.35727   0.51696   1.000
    C75     C    0.00000   0.35730   0.51991   1.000
    C76     C    0.50000   0.44633   0.53621   1.000
    C77     C    0.00000   0.44652   0.53847   1.000
    C78     C    0.43921   0.35932   0.85362   1.000
    C79     C    0.93725   0.36179   0.85600   1.000
    C80     C    0.31681   0.35920   0.07993   1.000
    C81     C    0.81697   0.35877   0.08181   1.000
    C82     C    0.31732   0.43599   0.14427   1.000
    C83     C    0.81748   0.43567   0.14604   1.000
    C84     C    0.35116   0.41593   0.22927   1.000
    C85     C    0.85129   0.41574   0.23107   1.000
    C86     C    0.34589   0.48161   0.29682   1.000
    C87     C    0.84560   0.48142   0.29861   1.000
    C88     C    0.31484   0.57036   0.27860   1.000
    C89     C    0.81411   0.57003   0.28035   1.000
    C90     C    0.28607   0.59574   0.19064   1.000
    C91     C    0.78534   0.59529   0.19237   1.000
    C92     C    0.28288   0.52656   0.12267   1.000
    C93     C    0.78268   0.52613   0.12439   1.000
    C94     C    0.25811   0.68700   0.16839   1.000
    C95     C    0.75680   0.68643   0.17017   1.000
    C96     C    0.22732   0.70952   0.08387   1.000
    C97     C    0.72603   0.70885   0.08561   1.000
    C98     C    0.22288   0.64153   0.01754   1.000
    C99     C    0.72221   0.64089   0.01922   1.000
    C100    C    0.25015   0.55232   0.03636   1.000
    C101    C    0.75001   0.55180   0.03804   1.000
    C102    C    0.31188   0.63762   0.35412   1.000
    C103    C    0.81031   0.63723   0.35580   1.000
    C104    C    0.06698   0.14026   0.91893   1.000
    C105    C    0.56716   0.13917   0.91913   1.000
    C106    C    0.06772   0.06349   0.85465   1.000
    C107    C    0.56720   0.06196   0.85523   1.000
    C108    C    0.10200   0.08367   0.76982   1.000
    C109    C    0.60072   0.08149   0.77006   1.000
    C110    C    0.09676   0.01822   0.70209   1.000
    C111    C    0.59492   0.01550   0.70282   1.000
    C112    C    0.06519   0.92960   0.72003   1.000
    C113    C    0.56372   0.92694   0.72150   1.000
    C114    C    0.03608   0.90404   0.80781   1.000
    C115    C    0.53515   0.90210   0.80960   1.000
    C116    C    0.03295   0.97298   0.87590   1.000
    C117    C    0.53247   0.97162   0.87734   1.000
    C118    C    0.00776   0.81279   0.82962   1.000
    C119    C    0.50692   0.81104   0.83235   1.000
    C120    C    0.97673   0.79002   0.91000   1.000
    C121    C    0.47636   0.78901   0.91700   1.000
    C122    C    0.97235   0.85778   0.98055   1.000
    C123    C    0.47243   0.85731   0.98308   1.000
    C124    C    0.99993   0.94698   0.96212   1.000
    C125    C    0.49994   0.94635   0.96382   1.000
    C126    C    0.06139   0.86259   0.64438   1.000
    C127    C    0.56076   0.85926   0.64640   1.000
    C128    C    0.18282   0.85941   0.41837   1.000
    C129    C    0.68296   0.85914   0.42014   1.000
    C130    C    0.18254   0.93610   0.35394   1.000
    C131    C    0.68251   0.93598   0.35586   1.000
    C132    C    0.14872   0.91607   0.26890   1.000
    C133    C    0.64868   0.91597   0.27085   1.000
    C134    C    0.15453   0.98164   0.20133   1.000
    C135    C    0.65396   0.98167   0.20334   1.000
    C136    C    0.18610   0.07023   0.21950   1.000
    C137    C    0.68500   0.07038   0.22162   1.000
    C138    C    0.21487   0.09558   0.30740   1.000
    C139    C    0.71382   0.09571   0.30958   1.000
    C140    C    0.21747   0.02650   0.37549   1.000
    C141    C    0.71700   0.02651   0.37751   1.000
    C142    C    0.24345   0.18670   0.32962   1.000
    C143    C    0.74184   0.18694   0.33183   1.000
    C144    C    0.27423   0.20915   0.41416   1.000
    C145    C    0.77271   0.20940   0.41635   1.000
    C146    C    0.27800   0.14125   0.48060   1.000
    C147    C    0.77716   0.14139   0.48265   1.000
    C148    C    0.25016   0.05218   0.46180   1.000
    C149    C    0.74982   0.05221   0.46381   1.000
    C150    C    0.18980   0.13736   0.14394   1.000
    C151    C    0.68793   0.13760   0.14609   1.000
    C152    C    0.35599   0.69509   0.58088   1.000
    C153    C    0.85652   0.69579   0.58107   1.000
    C154    C    0.00980   0.65226   0.52934   1.000
    C155    C    0.50934   0.65211   0.52860   1.000
    C156    C    0.38164   0.28886   0.84841   1.000
    C157    C    0.87983   0.29119   0.85180   1.000
    C158    C    0.99658   0.38227   0.92024   1.000
    C159    C    0.49802   0.37900   0.91839   1.000
    C160    C    0.39285   0.30272   0.07997   1.000
    C161    C    0.89331   0.30259   0.08139   1.000
    C162    C    0.24035   0.34728   0.02705   1.000
    C163    C    0.74004   0.34647   0.02953   1.000
    C164    C    0.36969   0.70796   0.34956   1.000
    C165    C    0.86784   0.70779   0.35180   1.000
    C166    C    0.25260   0.61769   0.41849   1.000
    C167    C    0.75048   0.61710   0.41976   1.000
    C168    C    0.14302   0.19667   0.91911   1.000
    C169    C    0.64380   0.19495   0.91930   1.000
    C170    C    0.49029   0.15215   0.97130   1.000
    C171    C    0.99034   0.15238   0.97149   1.000
    C172    C    0.12002   0.79268   0.64785   1.000
    C173    C    0.61834   0.78876   0.65158   1.000
    C174    C    0.50197   0.87900   0.58163   1.000
    C175    C    0.00000   0.88233   0.58122   1.000
    C176    C    0.10606   0.80376   0.41920   1.000
    C177    C    0.60692   0.80272   0.41999   1.000
    C178    C    0.25990   0.84676   0.47040   1.000
    C179    C    0.75938   0.84711   0.47304   1.000
    C180    C    0.13240   0.20804   0.14820   1.000
    C181    C    0.63027   0.20808   0.15069   1.000
    C182    C    0.24928   0.11706   0.07986   1.000
    C183    C    0.74704   0.11748   0.08165   1.000
    O184    O    0.99799   0.97286   0.98791   1.000
    O185    O    0.49811   0.97245   0.98941   1.000
    O186    O    0.23651   0.59693   0.02695   1.000
    O187    O    0.22510   0.67553   0.05070   1.000
    O188    O    0.21030   0.65072   0.98429   1.000
    O189    O    0.73611   0.59635   0.02863   1.000
    O190    O    0.72412   0.67487   0.05241   1.000
    O191    O    0.70965   0.65005   0.98596   1.000
    O192    O    0.27858   0.35324   0.05349   1.000
    O193    O    0.77850   0.35262   0.05567   1.000
    O194    O    0.09963   0.25283   0.09141   1.000
    O195    O    0.03172   0.33995   0.97743   1.000
    O196    O    0.59852   0.25227   0.09275   1.000
    O197    O    0.53240   0.33773   0.97660   1.000
    O198    O    0.26651   0.53944   0.07951   1.000
    O199    O    0.24816   0.52634   0.01067   1.000
    O200    O    0.76635   0.53896   0.08121   1.000
    O201    O    0.74826   0.52583   0.01232   1.000
    O202    O    0.95967   0.84849   0.01374   1.000
    O203    O    0.45993   0.84831   0.01639   1.000
    O204    O    0.21688   0.74471   0.07581   1.000
    O205    O    0.71532   0.74398   0.07757   1.000
    O206    O    0.21954   0.12721   0.11190   1.000
    O207    O    0.28309   0.15940   0.02208   1.000
    O208    O    0.35483   0.33096   0.07995   1.000
    O209    O    0.31706   0.39759   0.11210   1.000
    O210    O    0.85514   0.33068   0.08160   1.000
    O211    O    0.71749   0.12754   0.11387   1.000
    O212    O    0.78192   0.15936   0.02398   1.000
    O213    O    0.81722   0.39722   0.11392   1.000
    O214    O    0.24271   0.69826   0.12613   1.000
    O215    O    0.74142   0.69764   0.12789   1.000
    O216    O    0.30010   0.48128   0.13347   1.000
    O217    O    0.28447   0.56115   0.15665   1.000
    O218    O    0.80008   0.48090   0.13521   1.000
    O219    O    0.78401   0.56071   0.15838   1.000
    O220    O    0.14421   0.97229   0.16757   1.000
    O221    O    0.64362   0.97233   0.16959   1.000
    O222    O    0.16110   0.17270   0.14607   1.000
    O223    O    0.18795   0.10380   0.18172   1.000
    O224    O    0.33424   0.42596   0.18677   1.000
    O225    O    0.83439   0.42571   0.18855   1.000
    O226    O    0.65910   0.17284   0.14839   1.000
    O227    O    0.68647   0.10399   0.18385   1.000
    O228    O    0.27209   0.64137   0.17951   1.000
    O229    O    0.26066   0.71321   0.19384   1.000
    O230    O    0.77107   0.64086   0.18127   1.000
    O231    O    0.75909   0.71261   0.19567   1.000
    O232    O    0.30046   0.58305   0.23462   1.000
    O233    O    0.79973   0.58266   0.23636   1.000
    O234    O    0.17031   0.02593   0.21041   1.000
    O235    O    0.15163   0.94885   0.23511   1.000
    O236    O    0.66948   0.02602   0.21248   1.000
    O237    O    0.65132   0.94882   0.23709   1.000
    O238    O    0.20049   0.08291   0.26345   1.000
    O239    O    0.69941   0.08305   0.26560   1.000
    O240    O    0.36509   0.38153   0.23651   1.000
    O241    O    0.34853   0.44877   0.26304   1.000
    O242    O    0.86530   0.38137   0.23834   1.000
    O243    O    0.84844   0.44858   0.26484   1.000
    O244    O    0.13463   0.88172   0.26169   1.000
    O245    O    0.63475   0.88158   0.26360   1.000
    O246    O    0.16563   0.92609   0.31142   1.000
    O247    O    0.66559   0.92597   0.31335   1.000
    O248    O    0.24117   0.21287   0.30410   1.000
    O249    O    0.33037   0.52598   0.28771   1.000
    O250    O    0.31336   0.60399   0.31636   1.000
    O251    O    0.82986   0.52572   0.28948   1.000
    O252    O    0.81221   0.60363   0.31807   1.000
    O253    O    0.73930   0.21315   0.30636   1.000
    O254    O    0.35624   0.47225   0.33056   1.000
    O255    O    0.85591   0.47208   0.33237   1.000
    O256    O    0.22916   0.14114   0.31851   1.000
    O257    O    0.21617   0.06104   0.34144   1.000
    O258    O    0.72783   0.14132   0.32070   1.000
    O259    O    0.71541   0.06111   0.34355   1.000
    O260    O    0.25884   0.19792   0.37189   1.000
    O261    O    0.75728   0.19817   0.37409   1.000
    O262    O    0.34078   0.67279   0.35184   1.000
    O263    O    0.40139   0.75226   0.40738   1.000
    O264    O    0.83907   0.67251   0.35380   1.000
    O265    O    0.90024   0.75255   0.40883   1.000
    O266    O    0.20001   0.98130   0.36471   1.000
    O267    O    0.18268   0.89776   0.38615   1.000
    O268    O    0.28224   0.62766   0.38630   1.000
    O269    O    0.78039   0.62716   0.38778   1.000
    O270    O    0.69976   0.98124   0.36668   1.000
    O271    O    0.68273   0.89756   0.38800   1.000
    O272    O    0.23381   0.03934   0.41864   1.000
    O273    O    0.73341   0.03936   0.42066   1.000
    O274    O    0.28495   0.24427   0.42218   1.000
    O275    O    0.27612   0.17520   0.44738   1.000
    O276    O    0.78318   0.24457   0.42441   1.000
    O277    O    0.77494   0.17539   0.44950   1.000
    O278    O    0.14444   0.83159   0.41878   1.000
    O279    O    0.22136   0.85309   0.44438   1.000
    O280    O    0.21785   0.65976   0.47619   1.000
    O281    O    0.71662   0.65928   0.47767   1.000
    O282    O    0.64494   0.83093   0.42006   1.000
    O283    O    0.72117   0.85313   0.44659   1.000
    O284    O    0.54007   0.34825   0.48364   1.000
    O285    O    0.00000   0.34807   0.48672   1.000
    O286    O    0.26408   0.09671   0.47120   1.000
    O287    O    0.25188   0.02622   0.48756   1.000
    O288    O    0.76349   0.09680   0.47323   1.000
    O289    O    0.75183   0.02622   0.48950   1.000
    O290    O    0.46753   0.83778   0.52342   1.000
    O291    O    0.96632   0.83982   0.52354   1.000
    O292    O    0.29057   0.15041   0.51387   1.000
    O293    O    0.78978   0.15055   0.51590   1.000
    O294    O    0.50182   0.47242   0.51060   1.000
    O295    O    0.00000   0.47246   0.51273   1.000
    O296    O    0.51378   0.40180   0.52658   1.000
    O297    O    0.52559   0.32313   0.54998   1.000
    O298    O    0.00000   0.40191   0.52919   1.000
    O299    O    0.00000   0.32336   0.55311   1.000
    O300    O    0.47097   0.64567   0.55476   1.000
    O301    O    0.97138   0.64602   0.55547   1.000
    O302    O    0.15156   0.74726   0.59087   1.000
    O303    O    0.65055   0.74511   0.59358   1.000
    O304    O    0.48372   0.45899   0.57945   1.000
    O305    O    0.98349   0.45946   0.58152   1.000
    O306    O    0.53420   0.25386   0.57478   1.000
    O307    O    0.00000   0.25422   0.57836   1.000
    O308    O    0.39430   0.66716   0.58090   1.000
    O309    O    0.43263   0.60061   0.61286   1.000
    O310    O    0.89474   0.66778   0.58133   1.000
    O311    O    0.03070   0.87246   0.61280   1.000
    O312    O    0.93263   0.60137   0.61376   1.000
    O313    O    0.53137   0.86913   0.61401   1.000
    O314    O    0.50833   0.30002   0.62534   1.000
    O315    O    0.99583   0.30073   0.62847   1.000
    O316    O    0.45005   0.51682   0.63374   1.000
    O317    O    0.46612   0.43689   0.65652   1.000
    O318    O    0.94965   0.51769   0.63525   1.000
    O319    O    0.96521   0.43786   0.65859   1.000
    O320    O    0.10725   0.02766   0.66840   1.000
    O321    O    0.60516   0.02466   0.66901   1.000
    O322    O    0.09071   0.82763   0.64611   1.000
    O323    O    0.06329   0.89610   0.68220   1.000
    O324    O    0.41592   0.57178   0.68739   1.000
    O325    O    0.91511   0.57304   0.68833   1.000
    O326    O    0.58955   0.82401   0.64899   1.000
    O327    O    0.56224   0.89310   0.68395   1.000
    O328    O    0.47892   0.35659   0.67901   1.000
    O329    O    0.49071   0.28474   0.69305   1.000
    O330    O    0.97755   0.35768   0.68162   1.000
    O331    O    0.98901   0.28588   0.69614   1.000
    O332    O    0.45052   0.41457   0.73442   1.000
    O333    O    0.94877   0.41605   0.73648   1.000
    O334    O    0.08098   0.97391   0.71106   1.000
    O335    O    0.09938   0.05095   0.73595   1.000
    O336    O    0.57932   0.97122   0.71216   1.000
    O337    O    0.59782   0.04850   0.73644   1.000
    O338    O    0.05064   0.91682   0.76392   1.000
    O339    O    0.54944   0.91452   0.76555   1.000
    O340    O    0.38516   0.61589   0.73742   1.000
    O341    O    0.40211   0.54857   0.76360   1.000
    O342    O    0.88391   0.61751   0.73788   1.000
    O343    O    0.90037   0.55031   0.76455   1.000
    O344    O    0.61475   0.11581   0.76263   1.000
    O345    O    0.11601   0.11807   0.76272   1.000
    O346    O    0.08486   0.07358   0.81223   1.000
    O347    O    0.58396   0.07173   0.81264   1.000
    O348    O    0.01025   0.78668   0.80404   1.000
    O349    O    0.42064   0.47129   0.78785   1.000
    O350    O    0.43773   0.39316   0.81605   1.000
    O351    O    0.91847   0.47316   0.78937   1.000
    O352    O    0.93567   0.39529   0.81818   1.000
    O353    O    0.50926   0.78473   0.80697   1.000
    O354    O    0.39481   0.52475   0.83101   1.000
    O355    O    0.89233   0.52692   0.83206   1.000
    O356    O    0.02192   0.85842   0.81871   1.000
    O357    O    0.03451   0.93851   0.84185   1.000
    O358    O    0.52104   0.85657   0.82097   1.000
    O359    O    0.53381   0.93686   0.84347   1.000
    O360    O    0.99225   0.80140   0.86981   1.000
    O361    O    0.49164   0.80002   0.87467   1.000
    O362    O    0.41042   0.32409   0.85101   1.000
    O363    O    0.34928   0.24530   0.90636   1.000
    O364    O    0.90854   0.32649   0.85390   1.000
    O365    O    0.84831   0.24622   0.90905   1.000
    O366    O    0.46861   0.36916   0.88600   1.000
    O367    O    0.05033   0.01824   0.86527   1.000
    O368    O    0.06735   0.10187   0.88679   1.000
    O369    O    0.54984   0.01679   0.86628   1.000
    O370    O    0.56718   0.10057   0.88718   1.000
    O371    O    0.96691   0.37203   0.88812   1.000
    O372    O    0.01644   0.95998   0.91901   1.000
    O373    O    0.51620   0.95899   0.92058   1.000
    O374    O    0.96616   0.75484   0.91990   1.000
    O375    O    0.97454   0.82390   0.94527   1.000
    O376    O    0.46579   0.75390   0.92524   1.000
    O377    O    0.47440   0.82316   0.95004   1.000
    O378    O    0.10500   0.16847   0.91902   1.000
    O379    O    0.02866   0.14632   0.94521   1.000
    O380    O    0.60548   0.16706   0.91921   1.000
    O381    O    0.52872   0.14566   0.94521   1.000
    O382    O    0.98614   0.90238   0.97133   1.000
    O383    O    0.48618   0.90183   0.97345   1.000
    O384    O    0.39454   0.74583   0.52304   1.000
    O385    O    0.26954   0.69847   0.55739   1.000
    O386    O    0.89458   0.74655   0.52346   1.000
    O387    O    0.76964   0.69863   0.55833   1.000
    O388    O    0.97122   0.72479   0.49760   1.000
    O389    O    0.09645   0.67705   0.53162   1.000
    O390    O    0.47122   0.72434   0.49690   1.000
    O391    O    0.59605   0.67679   0.53209   1.000
    O392    O    0.35488   0.25223   0.02214   1.000
    O393    O    0.47981   0.29959   0.05739   1.000
    O394    O    0.85505   0.25192   0.02385   1.000
    O395    O    0.98008   0.30011   0.05800   1.000
    O396    O    0.27863   0.27451   0.99568   1.000
    O397    O    0.15360   0.32245   0.03083   1.000
    O398    O    0.77842   0.27385   0.99792   1.000
    O399    O    0.65341   0.32146   0.03217   1.000
    O400    O    0.22997   0.19921   0.94171   1.000
    O401    O    0.10494   0.24715   0.97686   1.000
    O402    O    0.73030   0.19810   0.94280   1.000
    O403    O    0.60529   0.24570   0.97706   1.000
    O404    O    0.40360   0.17694   0.96780   1.000
    O405    O    0.52854   0.22430   0.00306   1.000
    O406    O    0.90357   0.17681   0.96890   1.000
    O407    O    0.02860   0.22500   0.00305   1.000
    O408    O    0.01935   0.80054   0.44253   1.000
    O409    O    0.14458   0.75280   0.47655   1.000
    O410    O    0.52001   0.79964   0.44260   1.000
    O411    O    0.64484   0.75209   0.47779   1.000
    O412    O    0.34650   0.82166   0.46780   1.000
    O413    O    0.22150   0.77430   0.50215   1.000
    O414    O    0.84600   0.82221   0.46945   1.000
    O415    O    0.72107   0.77429   0.50431   1.000
loop_
    _geom_bond_atom_site_label_1
    _geom_bond_atom_site_label_2
    _geom_bond_distance
    _geom_bond_site_symmetry_2
    _ccdc_geom_bond_type
    C42    O184      0.54392  1_554   S
    C124   O184      0.54392      .   S
    C43    O185      0.54396  1_554   S
    C125   O185      0.54396      .   S
    C98    O186      0.68999      .   S
    C100   O186      0.68999      .   S
    C98    O187      0.70657      .   S
    C96    O187      0.70657      .   S
    C98    O188      0.54523  1_554   S
    C28    O188      0.54523      .   S
    C99    O189      0.69005      .   S
    C101   O189      0.69005      .   S
    C99    O190      0.70659      .   S
    C97    O190      0.70659      .   S
    C99    O191      0.54520  1_554   S
    C29    O191      0.54520      .   S
    C162   O192      0.64101      .   S
    C80    O192      0.64101      .   S
    C163   O193      0.64088      .   S
    C81    O193      0.64088      .   S
    C4     O194      1.15972      .   S
    C180   O194      1.15972      .   S
    C4     O195      1.15591  1_554   S
    C158   O195      1.15591  1_655   S
    C5     O196      1.16295      .   S
    C181   O196      1.16295      .   S
    C5     O197      1.15573  1_554   S
    C159   O197      1.15573      .   S
    C100   O198      0.71135      .   S
    C92    O198      0.71135      .   S
    C100   O199      0.54388      .   S
    C30    O199      0.54388  1_556   S
    C101   O200      0.71134      .   S
    C93    O200      0.71134      .   S
    C101   O201      0.54393      .   S
    C31    O201      0.54393  1_556   S
    C40    O202      0.54525      .   S
    C122   O202      0.54525  1_556   S
    C41    O203      0.54528      .   S
    C123   O203      0.54528  1_556   S
    C26    O204      0.54533      .   S
    C96    O204      0.54533      .   S
    C27    O205      0.54534      .   S
    C97    O205      0.54534      .   S
    C182   O206      0.63576      .   S
    C150   O206      0.63576      .   S
    C182   O207      1.15650      .   S
    C2     O207      1.15650  1_556   S
    C80    O208      0.64107      .   S
    C160   O208      0.64107      .   S
    C80    O209      0.74267      .   S
    C82    O209      0.74267      .   S
    C161   O210      0.64114      .   S
    C81    O210      0.64114      .   S
    C183   O211      0.63612      .   S
    C151   O211      0.63612      .   S
    C183   O212      1.15696      .   S
    C3     O212      1.15696  1_556   S
    C81    O213      0.74278      .   S
    C83    O213      0.74278      .   S
    C96    O214      0.68924      .   S
    C94    O214      0.68924      .   S
    C97    O215      0.68931      .   S
    C95    O215      0.68931      .   S
    C92    O216      0.71697      .   S
    C82    O216      0.71697      .   S
    C92    O217      0.72120      .   S
    C90    O217      0.72120      .   S
    C93    O218      0.71697      .   S
    C83    O218      0.71697      .   S
    C93    O219      0.72112      .   S
    C91    O219      0.72112      .   S
    C46    O220      0.54501      .   S
    C134   O220      0.54501      .   S
    C47    O221      0.54496      .   S
    C135   O221      0.54496      .   S
    C150   O222      0.63625      .   S
    C180   O222      0.63625      .   S
    C150   O223      0.75355      .   S
    C136   O223      0.75355      .   S
    C82    O224      0.69448      .   S
    C84    O224      0.69448      .   S
    C83    O225      0.69442      .   S
    C85    O225      0.69442      .   S
    C151   O226      0.63618      .   S
    C181   O226      0.63618      .   S
    C151   O227      0.75364      .   S
    C137   O227      0.75364      .   S
    C94    O228      0.71101      .   S
    C90    O228      0.71101      .   S
    C94    O229      0.54402      .   S
    C24    O229      0.54402      .   S
    C95    O230      0.71098      .   S
    C91    O230      0.71098      .   S
    C95    O231      0.54420      .   S
    C25    O231      0.54420      .   S
    C90    O232      0.71505      .   S
    C88    O232      0.71505      .   S
    C91    O233      0.71495      .   S
    C89    O233      0.71495      .   S
    C134   O234      0.69250  1_565   S
    C136   O234      0.69250      .   S
    C134   O235      0.70154      .   S
    C132   O235      0.70154      .   S
    C135   O236      0.69253  1_565   S
    C137   O236      0.69253      .   S
    C135   O237      0.70167      .   S
    C133   O237      0.70167      .   S
    C136   O238      0.71459      .   S
    C138   O238      0.71459      .   S
    C137   O239      0.71503      .   S
    C139   O239      0.71503      .   S
    C84    O240      0.54501      .   S
    C20    O240      0.54501      .   S
    C84    O241      0.70174      .   S
    C86    O241      0.70174      .   S
    C85    O242      0.54501      .   S
    C21    O242      0.54501      .   S
    C85    O243      0.70179      .   S
    C87    O243      0.70179      .   S
    C44    O244      0.54496      .   S
    C132   O244      0.54496      .   S
    C45    O245      0.54500      .   S
    C133   O245      0.54500      .   S
    C132   O246      0.69469      .   S
    C130   O246      0.69469      .   S
    C133   O247      0.69447      .   S
    C131   O247      0.69447      .   S
    C48    O248      0.54416      .   S
    C142   O248      0.54416      .   S
    C88    O249      0.69255      .   S
    C86    O249      0.69255      .   S
    C88    O250      0.75373      .   S
    C102   O250      0.75373      .   S
    C89    O251      0.69252      .   S
    C87    O251      0.69252      .   S
    C89    O252      0.75317      .   S
    C103   O252      0.75317      .   S
    C49    O253      0.54422      .   S
    C143   O253      0.54422      .   S
    C86    O254      0.54499      .   S
    C22    O254      0.54499      .   S
    C87    O255      0.54499      .   S
    C23    O255      0.54499      .   S
    C138   O256      0.71108      .   S
    C142   O256      0.71108      .   S
    C138   O257      0.72131      .   S
    C140   O257      0.72131      .   S
    C139   O258      0.71100      .   S
    C143   O258      0.71100      .   S
    C139   O259      0.72119      .   S
    C141   O259      0.72119      .   S
    C142   O260      0.68925      .   S
    C144   O260      0.68925      .   S
    C143   O261      0.68927      .   S
    C145   O261      0.68927      .   S
    C164   O262      0.63619      .   S
    C102   O262      0.63619      .   S
    C164   O263      1.16254      .   S
    C0     O263      1.16254      .   S
    C165   O264      0.63623      .   S
    C103   O264      0.63623      .   S
    C165   O265      1.16050      .   S
    C1     O265      1.16050      .   S
    C130   O266      0.71683      .   S
    C140   O266      0.71683  1_545   S
    C130   O267      0.74265      .   S
    C128   O267      0.74265      .   S
    C102   O268      0.63612      .   S
    C166   O268      0.63612      .   S
    C103   O269      0.63623      .   S
    C167   O269      0.63623      .   S
    C131   O270      0.71699      .   S
    C141   O270      0.71699  1_545   S
    C131   O271      0.74270      .   S
    C129   O271      0.74270      .   S
    C140   O272      0.71111      .   S
    C148   O272      0.71111      .   S
    C141   O273      0.71136      .   S
    C149   O273      0.71136      .   S
    C144   O274      0.54533      .   S
    C50    O274      0.54533      .   S
    C144   O275      0.70662      .   S
    C146   O275      0.70662      .   S
    C145   O276      0.54533      .   S
    C51    O276      0.54533      .   S
    C145   O277      0.70658      .   S
    C147   O277      0.70658      .   S
    C128   O278      0.64105      .   S
    C176   O278      0.64105      .   S
    C128   O279      0.64081      .   S
    C178   O279      0.64081      .   S
    C166   O280      1.15800      .   S
    C6     O280      1.15800      .   S
    C167   O281      1.15684      .   S
    C7     O281      1.15684      .   S
    C177   O282      0.64107      .   S
    C129   O282      0.64107      .   S
    C129   O283      0.64096      .   S
    C179   O283      0.64096      .   S
    C16    O284      0.54540      .   S
    C74    O284      0.54540      .   S
    C17    O285      0.51975      .   S
    C75    O285      0.51975      .   S
    C148   O286      0.69006      .   S
    C146   O286      0.69006      .   S
    C148   O287      0.54425      .   S
    C54    O287      0.54425      .   S
    C149   O288      0.69002      .   S
    C147   O288      0.69002      .   S
    C149   O289      0.54402      .   S
    C55    O289      0.54402      .   S
    C0     O290      1.15563      .   S
    C174   O290      1.15563      .   S
    C1     O291      1.15584      .   S
    C175   O291      1.15584  1_455   S
    C146   O292      0.54539      .   S
    C52    O292      0.54539      .   S
    C147   O293      0.54535      .   S
    C53    O293      0.54535      .   S
    C18    O294      0.54409      .   S
    C76    O294      0.54409      .   S
    C19    O295      0.54340      .   S
    C77    O295      0.54340      .   S
    C74    O296      0.69010      .   S
    C76    O296      0.69010      .   S
    C74    O297      0.70656      .   S
    C72    O297      0.70656      .   S
    C75    O298      0.66691      .   S
    C77    O298      0.66691      .   S
    C75    O299      0.70592      .   S
    C73    O299      0.70592      .   S
    C155   O300      0.64095      .   S
    C56    O300      0.64095      .   S
    C154   O301      0.64077  1_455   S
    C57    O301      0.64077      .   S
    C6     O302      1.16135      .   S
    C172   O302      1.16135      .   S
    C7     O303      1.16149      .   S
    C173   O303      1.16149      .   S
    C76    O304      0.71139      .   S
    C68    O304      0.71139      .   S
    C77    O305      0.71080  1_455   S
    C69    O305      0.71080      .   S
    C14    O306      0.54536      .   S
    C72    O306      0.54536      .   S
    C15    O307      0.52814      .   S
    C73    O307      0.52814      .   S
    C152   O308      0.64105      .   S
    C56    O308      0.64105      .   S
    C56    O309      0.74283      .   S
    C58    O309      0.74283      .   S
    C153   O310      0.64089      .   S
    C57    O310      0.64089      .   S
    C175   O311      0.63700      .   S
    C126   O311      0.63700      .   S
    C57    O312      0.74275      .   S
    C59    O312      0.74275      .   S
    C174   O313      0.63605      .   S
    C127   O313      0.63605      .   S
    C72    O314      0.68925      .   S
    C70    O314      0.68925      .   S
    C73    O315      0.66102  1_455   S
    C71    O315      0.66102      .   S
    C68    O316      0.71710      .   S
    C58    O316      0.71710      .   S
    C68    O317      0.72120      .   S
    C66    O317      0.72120      .   S
    C69    O318      0.71695      .   S
    C59    O318      0.71695      .   S
    C69    O319      0.72117      .   S
    C67    O319      0.72117      .   S
    C34    O320      0.54496      .   S
    C110   O320      0.54496      .   S
    C35    O321      0.54494      .   S
    C111   O321      0.54494      .   S
    C126   O322      0.63613      .   S
    C172   O322      0.63613      .   S
    C126   O323      0.75341      .   S
    C112   O323      0.75341      .   S
    C58    O324      0.69438      .   S
    C60    O324      0.69438      .   S
    C59    O325      0.69449      .   S
    C61    O325      0.69449      .   S
    C127   O326      0.63621      .   S
    C173   O326      0.63621      .   S
    C127   O327      0.75334      .   S
    C113   O327      0.75334      .   S
    C70    O328      0.71100      .   S
    C66    O328      0.71100      .   S
    C70    O329      0.54417      .   S
    C12    O329      0.54417      .   S
    C71    O330      0.71098      .   S
    C67    O330      0.71098      .   S
    C71    O331      0.54423      .   S
    C13    O331      0.54423      .   S
    C66    O332      0.71502      .   S
    C64    O332      0.71502      .   S
    C67    O333      0.71491      .   S
    C65    O333      0.71491      .   S
    C110   O334      0.69242  1_545   S
    C112   O334      0.69242      .   S
    C110   O335      0.70159      .   S
    C108   O335      0.70159      .   S
    C111   O336      0.69242  1_545   S
    C113   O336      0.69242      .   S
    C111   O337      0.70177      .   S
    C109   O337      0.70177      .   S
    C112   O338      0.71482      .   S
    C114   O338      0.71482      .   S
    C113   O339      0.71480      .   S
    C115   O339      0.71480      .   S
    C60    O340      0.54499      .   S
    C8     O340      0.54499      .   S
    C60    O341      0.70170      .   S
    C62    O341      0.70170      .   S
    C61    O342      0.54500      .   S
    C9     O342      0.54500      .   S
    C61    O343      0.70163      .   S
    C63    O343      0.70163      .   S
    C33    O344      0.54500      .   S
    C109   O344      0.54500      .   S
    C32    O345      0.54500      .   S
    C108   O345      0.54500      .   S
    C108   O346      0.69452      .   S
    C106   O346      0.69452      .   S
    C109   O347      0.69435      .   S
    C107   O347      0.69435      .   S
    C36    O348      0.54422      .   S
    C118   O348      0.54422      .   S
    C64    O349      0.69249      .   S
    C62    O349      0.69249      .   S
    C64    O350      0.75355      .   S
    C78    O350      0.75355      .   S
    C65    O351      0.69248      .   S
    C63    O351      0.69248      .   S
    C65    O352      0.75319      .   S
    C79    O352      0.75319      .   S
    C37    O353      0.54418      .   S
    C119   O353      0.54418      .   S
    C62    O354      0.54459      .   S
    C10    O354      0.54459      .   S
    C63    O355      0.54498      .   S
    C11    O355      0.54498      .   S
    C114   O356      0.71095      .   S
    C118   O356      0.71095      .   S
    C114   O357      0.72061      .   S
    C116   O357      0.72061      .   S
    C115   O358      0.71113      .   S
    C119   O358      0.71113      .   S
    C115   O359      0.72163      .   S
    C117   O359      0.72163      .   S
    C118   O360      0.66136  1_455   S
    C120   O360      0.66136      .   S
    C119   O361      0.68901      .   S
    C121   O361      0.68901      .   S
    C156   O362      0.63623      .   S
    C78    O362      0.63623      .   S
    C156   O363      1.16127      .   S
    C2     O363      1.16127      .   S
    C157   O364      0.63608      .   S
    C79    O364      0.63608      .   S
    C157   O365      1.16102      .   S
    C3     O365      1.16102      .   S
    C78    O366      0.63606      .   S
    C159   O366      0.63606      .   S
    C106   O367      0.71677      .   S
    C116   O367      0.71677  1_565   S
    C106   O368      0.74229      .   S
    C104   O368      0.74229      .   S
    C107   O369      0.71704      .   S
    C117   O369      0.71704  1_565   S
    C107   O370      0.74285      .   S
    C105   O370      0.74285      .   S
    C79    O371      0.63634      .   S
    C158   O371      0.63634      .   S
    C116   O372      0.71186      .   S
    C124   O372      0.71186  1_655   S
    C117   O373      0.71135      .   S
    C125   O373      0.71135      .   S
    C120   O374      0.55275      .   S
    C38    O374      0.55275      .   S
    C120   O375      0.72840      .   S
    C122   O375      0.72840      .   S
    C121   O376      0.54542      .   S
    C39    O376      0.54542      .   S
    C121   O377      0.70675      .   S
    C123   O377      0.70675      .   S
    C104   O378      0.64101      .   S
    C168   O378      0.64101      .   S
    C104   O379      0.64069      .   S
    C171   O379      0.64069  1_655   S
    C105   O380      0.64105      .   S
    C169   O380      0.64105      .   S
    C105   O381      0.64088      .   S
    C170   O381      0.64088      .   S
    C124   O382      0.69007      .   S
    C122   O382      0.69007      .   S
    C125   O383      0.69008      .   S
    C123   O383      0.69008      .   S
    C152   O384      1.25031      .   S
    C0     O384      1.25031      .   S
    C152   O385      1.17183      .   S
    C6     O385      1.17183      .   S
    C153   O386      1.24552      .   S
    C1     O386      1.24552      .   S
    C153   O387      1.17348      .   S
    C7     O387      1.17348      .   S
    C154   O388      1.26549  1_455   S
    C1     O388      1.26549      .   S
    C154   O389      1.17613      .   S
    C6     O389      1.17613      .   S
    C155   O390      1.25925      .   S
    C0     O390      1.25925      .   S
    C155   O391      1.17709      .   S
    C7     O391      1.17709      .   S
    C160   O392      1.24485      .   S
    C2     O392      1.24485  1_556   S
    C160   O393      1.17415      .   S
    C5     O393      1.17415      .   S
    C161   O394      1.24485      .   S
    C3     O394      1.24485  1_556   S
    C161   O395      1.17505      .   S
    C4     O395      1.17505  1_455   S
    C162   O396      1.26487  1_554   S
    C2     O396      1.26487      .   S
    C162   O397      1.17844      .   S
    C4     O397      1.17844      .   S
    C163   O398      1.26477  1_554   S
    C3     O398      1.26477      .   S
    C163   O399      1.17710      .   S
    C5     O399      1.17710      .   S
    C168   O400      1.17353      .   S
    C2     O400      1.17353      .   S
    C168   O401      1.24446      .   S
    C4     O401      1.24446  1_554   S
    C169   O402      1.17237      .   S
    C3     O402      1.17237      .   S
    C169   O403      1.24907      .   S
    C5     O403      1.24907  1_554   S
    C170   O404      1.17708      .   S
    C2     O404      1.17708      .   S
    C170   O405      1.25964  1_556   S
    C5     O405      1.25964      .   S
    C171   O406      1.17598      .   S
    C3     O406      1.17598      .   S
    C171   O407      1.26433  1_656   S
    C4     O407      1.26433      .   S
    C176   O408      1.17450      .   S
    C1     O408      1.17450  1_655   S
    C176   O409      1.24651      .   S
    C6     O409      1.24651      .   S
    C177   O410      1.17358      .   S
    C0     O410      1.17358      .   S
    C177   O411      1.24533      .   S
    C7     O411      1.24533      .   S
    C178   O412      1.17684      .   S
    C0     O412      1.17684      .   S
    C178   O413      1.26427      .   S
    C6     O413      1.26427      .   S
    C179   O414      1.17688      .   S
    C1     O414      1.17688      .   S
    C179   O415      1.26554      .   S
    C7     O415      1.26554      .   S
