# CIF file generated by openbabel 2.4.90, see http://openbabel.sf.net
data_I
_chemical_name_common ''
_cell_length_a 17.434
_cell_length_b 12.841
_cell_length_c 17.875
_cell_angle_alpha 90.002
_cell_angle_beta 89.998
_cell_angle_gamma 112.94
_space_group_name_H-M_alt 'P 1'
_space_group_name_Hall 'P 1'
loop_
    _symmetry_equiv_pos_as_xyz
    x,y,z
loop_
    _atom_site_label
    _atom_site_type_symbol
    _atom_site_fract_x
    _atom_site_fract_y
    _atom_site_fract_z
    _atom_site_occupancy
    Mc0     Mc   0.30083   0.21207   0.31151   1.000
    Mc1     Mc   0.47194   0.49899   0.15340   1.000
    Mc2     Mc   0.27806   0.50098   0.65343   1.000
    Mc3     Mc   0.44919   0.78790   0.81151   1.000
    Mc4     Mc   0.77806   0.50098   0.65343   1.000
    Mc5     Mc   0.94919   0.78790   0.81151   1.000
    Mc6     Mc   0.97194   0.49899   0.15340   1.000
    Mc7     Mc   0.80083   0.21207   0.31151   1.000
    Mc8     Mc   0.05081   0.21206   0.18849   1.000
    Mc9     Mc   0.22194   0.49897   0.34656   1.000
    Mc10    Mc   0.72194   0.49897   0.34656   1.000
    Mc11    Mc   0.55081   0.21206   0.18849   1.000
    Mc12    Mc   0.52806   0.50097   0.84653   1.000
    Mc13    Mc   0.69918   0.78789   0.68849   1.000
    Mc14    Mc   0.02806   0.50097   0.84656   1.000
    Mc15    Mc   0.19918   0.78789   0.68849   1.000
