# CIF file generated by openbabel 2.4.90, see http://openbabel.sf.net
data_I
_chemical_name_common ''
_cell_length_a 17.434
_cell_length_b 12.841
_cell_length_c 17.875
_cell_angle_alpha 90.002
_cell_angle_beta 89.998
_cell_angle_gamma 112.94
_space_group_name_H-M_alt 'P 1'
_space_group_name_Hall 'P 1'
loop_
    _symmetry_equiv_pos_as_xyz
    x,y,z
loop_
    _atom_site_label
    _atom_site_type_symbol
    _atom_site_fract_x
    _atom_site_fract_y
    _atom_site_fract_z
    _atom_site_occupancy
    Lv0     Lv   0.32995   0.21639   0.21826   1.000
    Lv1     Lv   0.42005   0.78358   0.71820   1.000
    Lv2     Lv   0.92005   0.78358   0.71826   1.000
    Lv3     Lv   0.25001   0.49999   1.00000   1.000
    Lv4     Lv   0.75001   0.49999   0.99999   1.000
    Lv5     Lv   0.82995   0.21639   0.21826   1.000
    Lv6     Lv   0.07994   0.21638   0.28174   1.000
    Lv7     Lv   0.99937   0.49999   0.49999   1.000
    Lv8     Lv   0.57994   0.21638   0.28174   1.000
    Lv9     Lv   0.50001   0.49999   0.49999   1.000
    Lv10    Lv   0.67005   0.78356   0.78174   1.000
    Lv11    Lv   0.17006   0.78356   0.78174   1.000
