# CIF file generated by openbabel 2.4.90, see http://openbabel.sf.net
data_I
_chemical_name_common ''
_cell_length_a 17.434
_cell_length_b 12.841
_cell_length_c 17.875
_cell_angle_alpha 90.002
_cell_angle_beta 89.998
_cell_angle_gamma 112.94
_space_group_name_H-M_alt 'P 1'
_space_group_name_Hall 'P 1'
loop_
    _symmetry_equiv_pos_as_xyz
    x,y,z
loop_
    _atom_site_label
    _atom_site_type_symbol
    _atom_site_fract_x
    _atom_site_fract_y
    _atom_site_fract_z
    _atom_site_occupancy
    H0      H    0.19546   0.86967   0.48155   1.000
    H1      H    0.69546   0.86967   0.48150   1.000
    H2      H    0.10735   0.79684   0.42534   1.000
    H3      H    0.60735   0.79684   0.42534   1.000
    H4      H    0.11797   0.53118   0.58667   1.000
    H5      H    0.61797   0.53118   0.58667   1.000
    H6      H    0.99202   0.65925   0.42540   1.000
    H7      H    0.49202   0.65925   0.42540   1.000
    H8      H    0.05456   0.13031   0.98150   1.000
    H9      H    0.55456   0.13031   0.98156   1.000
    H10     H    0.14268   0.20313   0.92535   1.000
    H11     H    0.64268   0.20313   0.92535   1.000
    H12     H    0.13204   0.46881   0.08666   1.000
    H13     H    0.63204   0.46881   0.08666   1.000
    H14     H    0.25800   0.34072   0.92541   1.000
    H15     H    0.75800   0.34073   0.92541   1.000
    H16     H    0.30455   0.13031   0.51845   1.000
    H17     H    0.80455   0.13031   0.51845   1.000
    H18     H    0.39267   0.20314   0.57460   1.000
    H19     H    0.89267   0.20314   0.57460   1.000
    H20     H    0.38205   0.46881   0.41330   1.000
    H21     H    0.88205   0.46881   0.41330   1.000
    H22     H    0.50800   0.34073   0.57460   1.000
    H23     H    0.00000   0.34073   0.57460   1.000
    H24     H    0.44546   0.86968   0.01844   1.000
    H25     H    0.94546   0.86968   0.01840   1.000
    H26     H    0.35734   0.79686   0.07465   1.000
    H27     H    0.85734   0.79686   0.07465   1.000
    H28     H    0.36797   0.53117   0.91334   1.000
    H29     H    0.86797   0.53117   0.91334   1.000
    H30     H    0.24201   0.65926   0.07459   1.000
    H31     H    0.74201   0.65926   0.07459   1.000
    C32     C    0.13004   0.80960   0.48348   1.000
    C33     C    0.63004   0.80960   0.48348   1.000
    O34     O    0.07994   0.21638   0.28174   1.000
    C35     C    0.06354   0.60834   0.50723   1.000
    C36     C    0.56354   0.60834   0.50723   1.000
    C37     C    0.06616   0.51706   0.54844   1.000
    C38     C    0.56616   0.51706   0.54844   1.000
    C39     C    0.99656   0.59088   0.45869   1.000
    C40     C    0.49656   0.59088   0.45869   1.000
    C41     C    0.11998   0.19038   0.98349   1.000
    C42     C    0.61998   0.19038   0.98349   1.000
    C43     C    0.18648   0.39164   0.00722   1.000
    C44     C    0.68648   0.39164   0.00722   1.000
    C45     C    0.18386   0.48292   0.04840   1.000
    C46     C    0.68386   0.48292   0.04840   1.000
    C47     C    0.25346   0.40910   0.95870   1.000
    C48     C    0.75346   0.40910   0.95870   1.000
    C49     C    0.36997   0.19038   0.51650   1.000
    C50     C    0.86997   0.19038   0.51650   1.000
    C51     C    0.43648   0.39164   0.49278   1.000
    C52     C    0.93648   0.39164   0.49278   1.000
    C53     C    0.43386   0.48292   0.45156   1.000
    C54     C    0.93385   0.48292   0.45156   1.000
    C55     C    0.50346   0.40910   0.54130   1.000
    C56     C    0.00000   0.40910   0.54130   1.000
    C57     C    0.38004   0.80961   0.01651   1.000
    C58     C    0.88004   0.80961   0.01651   1.000
    C59     C    0.31353   0.60834   0.99279   1.000
    C60     C    0.81354   0.60834   0.99279   1.000
    C61     C    0.31616   0.51706   0.95157   1.000
    C62     C    0.81616   0.51706   0.95157   1.000
    C63     C    0.24655   0.59088   0.04130   1.000
    C64     C    0.74655   0.59088   0.04130   1.000
    O65     O    0.42005   0.78358   0.71820   1.000
    O66     O    0.92005   0.78358   0.71826   1.000
    O67     O    0.13144   0.70960   0.51654   1.000
    O68     O    0.63144   0.70960   0.51654   1.000
    O69     O    0.32995   0.21639   0.21826   1.000
    O70     O    0.82995   0.21639   0.21826   1.000
    O71     O    0.11858   0.29038   0.01654   1.000
    O72     O    0.61858   0.29038   0.01650   1.000
    O73     O    0.57994   0.21638   0.28174   1.000
    O74     O    0.36858   0.29039   0.48347   1.000
    O75     O    0.86857   0.29039   0.48347   1.000
    O76     O    0.17006   0.78356   0.78174   1.000
    O77     O    0.67005   0.78356   0.78174   1.000
    O78     O    0.38144   0.70960   0.98347   1.000
    O79     O    0.88144   0.70960   0.98347   1.000
loop_
    _geom_bond_atom_site_label_1
    _geom_bond_atom_site_label_2
    _geom_bond_distance
    _geom_bond_site_symmetry_2
    _ccdc_geom_bond_type
    C44    O72       1.38551      .   S
    C44    C46       1.39985      .   S
    C44    C48       1.40070  1_554   S
    C43    O71       1.38559      .   S
    C43    C45       1.39985      .   S
    C43    C47       1.40068  1_554   S
    O72    C42       1.42203  1_554   S
    C57    H24       1.10056      .   S
    C57    H26       1.10133      .   S
    C57    O78       1.42229  1_554   S
    C58    H25       1.10054      .   S
    C58    H27       1.10133      .   S
    C58    O79       1.42229  1_554   S
    O71    C41       1.42232  1_554   S
    C63    C45       1.39699      .   S
    C63    H30       1.08878      .   S
    C63    C59       1.40059  1_554   S
    C64    C46       1.39699      .   S
    C64    H31       1.08877      .   S
    C64    C60       1.40060  1_554   S
    C46    H13       1.09035      .   S
    C45    H12       1.09035      .   S
    H20    C53       1.09035      .   S
    H21    C54       1.09035      .   S
    H2     C32       1.10132      .   S
    H3     C33       1.10132      .   S
    H6     C39       1.08875      .   S
    H7     C40       1.08876      .   S
    C53    C40       1.39705      .   S
    C53    C51       1.40021      .   S
    C54    C39       1.39706      .   S
    C54    C52       1.40022      .   S
    C40    C36       1.40096      .   S
    C39    C35       1.40097  1_655   S
    H1     C33       1.10058      .   S
    H0     C32       1.10057      .   S
    O75    C52       1.38557      .   S
    O75    C50       1.42223      .   S
    O74    C51       1.38558      .   S
    O74    C49       1.42223      .   S
    C33    O68       1.42244      .   S
    C32    O67       1.42244      .   S
    C51    C55       1.40072      .   S
    C52    C56       1.35478  1_655   S
    C36    O68       1.38558      .   S
    C36    C38       1.40011      .   S
    C35    O67       1.38558      .   S
    C35    C37       1.40011      .   S
    C50    H17       1.10056      .   S
    C50    H19       1.10067      .   S
    C49    H16       1.10058      .   S
    C49    H18       1.10067      .   S
    C55    C38       1.39707      .   S
    C55    H22       1.08886      .   S
    C56    C37       1.42201      .   S
    C56    H23       1.06075      .   S
    C38    H5        1.09001      .   S
    C37    H4        1.09000      .   S
    H28    C61       1.09000      .   S
    H29    C62       1.09001      .   S
    H10    C41       1.10134      .   S
    H11    C42       1.10134      .   S
    H15    C48       1.08877      .   S
    H14    C47       1.08877      .   S
    C62    C48       1.39704      .   S
    C62    C60       1.40021      .   S
    C61    C47       1.39704      .   S
    C61    C59       1.40023      .   S
    H8     C41       1.10059      .   S
    H9     C42       1.10055      .   S
    O79    C60       1.38560      .   S
    O78    C59       1.38560      .   S
