# CIF file generated by openbabel 2.4.90, see http://openbabel.sf.net
data_I
_chemical_name_common ''
_cell_length_a 17.434
_cell_length_b 12.841
_cell_length_c 17.875
_cell_angle_alpha 90.002
_cell_angle_beta 89.998
_cell_angle_gamma 112.94
_space_group_name_H-M_alt 'P 1'
_space_group_name_Hall 'P 1'
loop_
    _symmetry_equiv_pos_as_xyz
    x,y,z
loop_
    _atom_site_label
    _atom_site_type_symbol
    _atom_site_fract_x
    _atom_site_fract_y
    _atom_site_fract_z
    _atom_site_occupancy
    La0     La   0.96695   0.95406   0.61103   1.000
    La1     La   0.28305   0.04591   0.11100   1.000
    La2     La   0.78305   0.04591   0.11102   1.000
    La3     La   0.03305   0.04591   0.38897   1.000
    La4     La   0.53304   0.04591   0.38897   1.000
    La5     La   0.21696   0.95405   0.88898   1.000
    La6     La   0.71696   0.95405   0.88898   1.000
    La7     La   0.46695   0.95406   0.61103   1.000
    C8      C    0.11696   0.21041   0.55089   1.000
    C9      C    0.61696   0.21041   0.55089   1.000
    C10     C    0.03286   0.91964   0.78764   1.000
    C11     C    0.53286   0.91964   0.78764   1.000
    C12     C    0.08187   0.86530   0.52839   1.000
    C13     C    0.58187   0.86530   0.52839   1.000
    O14     O    0.13965   0.81194   0.98121   1.000
    O15     O    0.63965   0.81194   0.98121   1.000
    O16     O    0.16621   0.05688   0.34220   1.000
    O17     O    0.66621   0.05688   0.34228   1.000
    C18     C    0.13304   0.78955   0.05088   1.000
    C19     C    0.63304   0.78955   0.05088   1.000
    C20     C    0.21715   0.08034   0.28760   1.000
    C21     C    0.71714   0.08034   0.28760   1.000
    C22     C    0.16814   0.13468   0.02839   1.000
    C23     C    0.66814   0.13468   0.02839   1.000
    C24     C    0.38304   0.78955   0.44911   1.000
    C25     C    0.88304   0.78955   0.44911   1.000
    C26     C    0.46714   0.08033   0.21235   1.000
    C27     C    0.96714   0.08033   0.21235   1.000
    C28     C    0.41814   0.13468   0.47161   1.000
    C29     C    0.91814   0.13468   0.47161   1.000
    C30     C    0.36696   0.21040   0.94912   1.000
    C31     C    0.86696   0.21040   0.94912   1.000
    C32     C    0.28286   0.91962   0.71236   1.000
    C33     C    0.78285   0.91962   0.71236   1.000
    C34     C    0.33186   0.86529   0.97161   1.000
    C35     C    0.83186   0.86529   0.97161   1.000
    O36     O    0.07263   0.95070   0.49840   1.000
    O37     O    0.57263   0.95070   0.49840   1.000
    O38     O    0.05455   0.83027   0.59288   1.000
    O39     O    0.55455   0.83027   0.59288   1.000
    O40     O    0.04036   0.98303   0.73170   1.000
    O41     O    0.54036   0.98303   0.73170   1.000
    O42     O    0.07028   0.15086   0.60225   1.000
    O43     O    0.57028   0.15086   0.60225   1.000
    O44     O    0.11035   0.18801   0.48121   1.000
    O45     O    0.61035   0.18801   0.48121   1.000
    O46     O    0.08381   0.94311   0.84227   1.000
    O47     O    0.58381   0.94311   0.84227   1.000
    O48     O    0.17736   0.04926   0.99840   1.000
    O49     O    0.67736   0.04926   0.99842   1.000
    O50     O    0.19546   0.16972   0.09287   1.000
    O51     O    0.69546   0.16972   0.09287   1.000
    O52     O    0.20964   0.01696   0.23169   1.000
    O53     O    0.70964   0.01696   0.23169   1.000
    O54     O    0.17972   0.84910   0.10223   1.000
    O55     O    0.67972   0.84910   0.10223   1.000
    O56     O    0.42736   0.04927   0.50159   1.000
    O57     O    0.92736   0.04927   0.50159   1.000
    O58     O    0.44546   0.16971   0.40712   1.000
    O59     O    0.94546   0.16971   0.40712   1.000
    O60     O    0.45964   0.01693   0.26830   1.000
    O61     O    0.95964   0.01693   0.26830   1.000
    O62     O    0.42972   0.84910   0.39775   1.000
    O63     O    0.92972   0.84910   0.39775   1.000
    O64     O    0.38965   0.81194   0.51879   1.000
    O65     O    0.88965   0.81194   0.51879   1.000
    O66     O    0.41620   0.05686   0.15772   1.000
    O67     O    0.91620   0.05686   0.15772   1.000
    O68     O    0.32264   0.95071   0.00157   1.000
    O69     O    0.82264   0.95071   0.00157   1.000
    O70     O    0.30455   0.83025   0.90710   1.000
    O71     O    0.80455   0.83025   0.90712   1.000
    O72     O    0.29036   0.98301   0.76831   1.000
    O73     O    0.79036   0.98301   0.76831   1.000
    O74     O    0.32028   0.15086   0.89777   1.000
    O75     O    0.82028   0.15086   0.89777   1.000
    O76     O    0.36035   0.18801   0.01879   1.000
    O77     O    0.86035   0.18801   0.01879   1.000
    O78     O    0.33379   0.94309   0.65772   1.000
    O79     O    0.83379   0.94309   0.65770   1.000
loop_
    _geom_bond_atom_site_label_1
    _geom_bond_atom_site_label_2
    _geom_bond_distance
    _geom_bond_site_symmetry_2
    _ccdc_geom_bond_type
    O69    La2       2.54085  1_565   S
    O69    C35       1.28573  1_554   S
    O68    La1       2.54058  1_565   S
    O68    C34       1.28572  1_554   S
    O77    La2       2.43864      .   S
    O77    C31       1.27320  1_554   S
    O76    La1       2.43840      .   S
    O76    C30       1.27320  1_554   S
    C23    O51       1.26122      .   S
    C23    O49       1.28579  1_554   S
    C22    O50       1.26122      .   S
    C22    O48       1.28593  1_554   S
    C19    O55       1.26668      .   S
    C19    O15       1.27319  1_554   S
    C18    O54       1.26669      .   S
    C18    O14       1.27319  1_554   S
    O50    La1       2.61852      .   S
    O51    La2       2.61854      .   S
    O54    La1       2.47129  1_565   S
    O55    La2       2.47131  1_565   S
    La1    O66       2.41905      .   S
    La1    O52       2.46152      .   S
    La2    O67       2.41893      .   S
    La2    O53       2.46120      .   S
    O67    C27       1.27452      .   S
    O66    C26       1.27452      .   S
    C27    O61       1.26373      .   S
    C26    O60       1.26373      .   S
    O52    C20       1.26308      .   S
    O53    C21       1.26308      .   S
    O60    La4       2.46125      .   S
    O61    La3       2.46126  1_655   S
    C21    O17       1.27514      .   S
    C20    O16       1.27404      .   S
    O16    La3       2.41942      .   S
    O17    La4       2.41893      .   S
    La3    O63       2.47136  1_445   S
    La3    O59       2.61859  1_455   S
    La3    O44       2.43877      .   S
    La3    O36       2.54073  1_545   S
    La4    O62       2.47135  1_545   S
    La4    O58       2.61856      .   S
    La4    O45       2.43877      .   S
    La4    O37       2.54073  1_545   S
    O62    C24       1.26676      .   S
    O63    C25       1.26676      .   S
    O59    C29       1.26136      .   S
    O58    C28       1.26136      .   S
    C25    O65       1.27337      .   S
    C24    O64       1.27337      .   S
    C29    O57       1.28590      .   S
    C28    O56       1.28590      .   S
    O45    C9        1.27337      .   S
    O44    C8        1.27337      .   S
    O36    C12       1.28589      .   S
    O37    C13       1.28591      .   S
    O57    La0       2.54085  1_545   S
    O56    La7       2.54085  1_545   S
    O65    La0       2.43880      .   S
    O64    La7       2.43880      .   S
    C13    O39       1.26132      .   S
    C12    O38       1.26132      .   S
    C8     O42       1.26677      .   S
    C9     O43       1.26677      .   S
    O39    La7       2.61853      .   S
    O38    La0       2.61856  1_455   S
    O43    La7       2.47134  1_545   S
    O42    La0       2.47135  1_445   S
    La0    O79       2.41879      .   S
    La0    O40       2.46123  1_655   S
    La7    O78       2.41892      .   S
    La7    O41       2.46122      .   S
    O79    C33       1.27485      .   S
    O78    C32       1.27458      .   S
    C32    O72       1.26363      .   S
    C33    O73       1.26364      .   S
    O41    C11       1.26359      .   S
    O40    C10       1.26359      .   S
    O72    La5       2.46120      .   S
    O73    La6       2.46120      .   S
    C11    O47       1.27461      .   S
    C10    O46       1.27460      .   S
    O47    La6       2.41888      .   S
    O46    La5       2.41888      .   S
    La5    O74       2.47134  1_565   S
    La5    O70       2.61855      .   S
    La5    O14       2.43872      .   S
    La5    O48       2.54052  1_565   S
    La6    O75       2.47134  1_565   S
    La6    O71       2.61859      .   S
    La6    O15       2.43872      .   S
    La6    O49       2.54079  1_565   S
    O75    C31       1.26665      .   S
    O74    C30       1.26665      .   S
    O70    C34       1.26171      .   S
    O71    C35       1.26139      .   S
    O36    La0       2.74071  1_455   S
    O37    La7       2.74069      .   S
    O48    La1       2.74041  1_556   S
    O49    La2       2.74039  1_556   S
    O56    La4       2.74056      .   S
    O57    La3       2.74058  1_655   S
    O68    La5       2.74022  1_554   S
    O69    La6       2.74022  1_554   S
