# CIF file generated by openbabel 2.4.90, see http://openbabel.sf.net
data_I
_chemical_name_common ''
_cell_length_a 17.434
_cell_length_b 12.841
_cell_length_c 17.875
_cell_angle_alpha 90.002
_cell_angle_beta 89.998
_cell_angle_gamma 112.94
_space_group_name_H-M_alt 'P 1'
_space_group_name_Hall 'P 1'
loop_
    _symmetry_equiv_pos_as_xyz
    x,y,z
loop_
    _atom_site_label
    _atom_site_type_symbol
    _atom_site_fract_x
    _atom_site_fract_y
    _atom_site_fract_z
    _atom_site_occupancy
    C0      C    0.11696   0.21041   0.55089   1.000
    C1      C    0.61696   0.21041   0.55089   1.000
    C2      C    0.03286   0.91964   0.78764   1.000
    C3      C    0.53286   0.91964   0.78764   1.000
    C4      C    0.08187   0.86530   0.52839   1.000
    C5      C    0.58187   0.86530   0.52839   1.000
    C6      C    0.13304   0.78955   0.05088   1.000
    C7      C    0.63304   0.78955   0.05088   1.000
    C8      C    0.21715   0.08034   0.28760   1.000
    C9      C    0.71714   0.08034   0.28760   1.000
    C10     C    0.16814   0.13468   0.02839   1.000
    C11     C    0.66814   0.13468   0.02839   1.000
    C12     C    0.38304   0.78955   0.44911   1.000
    C13     C    0.88304   0.78955   0.44911   1.000
    C14     C    0.46714   0.08033   0.21235   1.000
    C15     C    0.96714   0.08033   0.21235   1.000
    C16     C    0.41814   0.13468   0.47161   1.000
    C17     C    0.91814   0.13468   0.47161   1.000
    C18     C    0.36696   0.21040   0.94912   1.000
    C19     C    0.86696   0.21040   0.94912   1.000
    C20     C    0.28286   0.91962   0.71236   1.000
    C21     C    0.78285   0.91962   0.71236   1.000
    C22     C    0.33186   0.86529   0.97161   1.000
    C23     C    0.83186   0.86529   0.97161   1.000
