# CIF file generated by openbabel 2.4.90, see http://openbabel.sf.net
data_I
_chemical_name_common ''
_cell_length_a 17.434
_cell_length_b 12.841
_cell_length_c 17.875
_cell_angle_alpha 90.002
_cell_angle_beta 89.998
_cell_angle_gamma 112.94
_space_group_name_H-M_alt 'P 1'
_space_group_name_Hall 'P 1'
loop_
    _symmetry_equiv_pos_as_xyz
    x,y,z
loop_
    _atom_site_label
    _atom_site_type_symbol
    _atom_site_fract_x
    _atom_site_fract_y
    _atom_site_fract_z
    _atom_site_occupancy
    Zr0     Zr   0.46695   0.95406   0.61103   1.000
    Zr1     Zr   0.96695   0.95406   0.61103   1.000
    Zr2     Zr   0.28305   0.04591   0.11100   1.000
    Zr3     Zr   0.78305   0.04591   0.11102   1.000
    Zr4     Zr   0.03305   0.04591   0.38897   1.000
    Zr5     Zr   0.53304   0.04591   0.38897   1.000
    Zr6     Zr   0.21696   0.95405   0.88898   1.000
    Zr7     Zr   0.71696   0.95405   0.88898   1.000
    N8      N    0.32995   0.21639   0.21826   1.000
    O9      O    0.31822   0.17377   0.19145   1.000
    N10     N    0.42005   0.78358   0.71820   1.000
    O11     O    0.43178   0.82620   0.69141   1.000
    N12     N    0.92005   0.78358   0.71826   1.000
    O13     O    0.93178   0.82620   0.69145   1.000
    N14     N    0.25001   0.49999   1.00000   1.000
    N15     N    0.75001   0.49999   0.99999   1.000
    N16     N    0.82995   0.21639   0.21826   1.000
    O17     O    0.81822   0.17377   0.19145   1.000
    N18     N    0.07994   0.21638   0.28174   1.000
    O19     O    0.06822   0.17376   0.30855   1.000
    N20     N    0.99937   0.49999   0.49999   1.000
    N21     N    0.57994   0.21638   0.28174   1.000
    O22     O    0.56822   0.17376   0.30855   1.000
    N23     N    0.50001   0.49999   0.49999   1.000
    N24     N    0.67005   0.78356   0.78174   1.000
    O25     O    0.68178   0.82619   0.80855   1.000
    N26     N    0.17006   0.78356   0.78174   1.000
    O27     O    0.18178   0.82619   0.80855   1.000
    C28     C    0.69767   0.05139   0.28719   1.000
    O29     O    0.64865   0.05139   0.32641   1.000
    O30     O    0.72200   0.04141   0.22927   1.000
    O31     O    0.73774   0.11274   0.29391   1.000
    C32     C    0.06969   0.88209   0.53989   1.000
    O33     O    0.06117   0.77540   0.52143   1.000
    O34     O    0.06126   0.94019   0.49179   1.000
    C35     C    0.56968   0.88209   0.53989   1.000
    O36     O    0.56133   0.77540   0.52143   1.000
    O37     O    0.56126   0.94019   0.49179   1.000
    C38     C    0.09920   0.18310   0.54478   1.000
    O39     O    0.15757   0.28295   0.57582   1.000
    O40     O    0.05891   0.11778   0.57571   1.000
    O41     O    0.08545   0.15003   0.48994   1.000
    C42     C    0.44766   0.05137   0.21279   1.000
    O43     O    0.47200   0.04140   0.27071   1.000
    O44     O    0.39864   0.05138   0.17358   1.000
    O45     O    0.48773   0.11272   0.20608   1.000
    C46     C    0.19767   0.05139   0.28716   1.000
    O47     O    0.14865   0.05139   0.32637   1.000
    O48     O    0.22201   0.04141   0.22925   1.000
    O49     O    0.23774   0.11274   0.29389   1.000
    C50     C    0.15080   0.81687   0.04477   1.000
    O51     O    0.09243   0.71702   0.07582   1.000
    O52     O    0.16455   0.84993   0.98993   1.000
    O53     O    0.19109   0.88219   0.07569   1.000
    C54     C    0.93032   0.11789   0.46011   1.000
    O55     O    0.93852   0.22457   0.47857   1.000
    O56     O    0.93874   0.05977   0.50821   1.000
    C57     C    0.65080   0.81687   0.04477   1.000
    O58     O    0.59243   0.71702   0.07582   1.000
    O59     O    0.66455   0.84993   0.98993   1.000
    O60     O    0.69109   0.88219   0.07570   1.000
    C61     C    0.55234   0.94859   0.78720   1.000
    O62     O    0.60136   0.94859   0.82641   1.000
    O63     O    0.51227   0.88724   0.79392   1.000
    O64     O    0.52800   0.95857   0.72928   1.000
    C65     C    0.05234   0.94859   0.78720   1.000
    O66     O    0.10136   0.94859   0.82641   1.000
    O67     O    0.01227   0.88724   0.79392   1.000
    O68     O    0.02800   0.95857   0.72928   1.000
    C69     C    0.18032   0.11789   0.03989   1.000
    O70     O    0.18874   0.05977   0.99179   1.000
    O71     O    0.18868   0.22457   0.02143   1.000
    C72     C    0.59920   0.18310   0.54478   1.000
    O73     O    0.55891   0.11778   0.57571   1.000
    O74     O    0.65757   0.28294   0.57582   1.000
    O75     O    0.58545   0.15003   0.48994   1.000
    C76     C    0.94766   0.05137   0.21279   1.000
    O77     O    0.98773   0.11272   0.20608   1.000
    O78     O    0.89864   0.05138   0.17358   1.000
    O79     O    0.97200   0.04140   0.27071   1.000
    C80     C    0.80233   0.94857   0.71279   1.000
    O81     O    0.76226   0.88722   0.70608   1.000
    O82     O    0.77800   0.95855   0.77072   1.000
    O83     O    0.85135   0.94857   0.67358   1.000
    C84     C    0.81968   0.88208   0.96010   1.000
    O85     O    0.81126   0.94020   0.00820   1.000
    O86     O    0.81133   0.77540   0.97856   1.000
    C87     C    0.43032   0.11789   0.46011   1.000
    O88     O    0.43868   0.22457   0.47856   1.000
    O89     O    0.43874   0.05977   0.50821   1.000
    C90     C    0.90080   0.81686   0.45522   1.000
    O91     O    0.91455   0.84993   0.51006   1.000
    O92     O    0.94109   0.88218   0.42429   1.000
    O93     O    0.84243   0.71701   0.42417   1.000
    C94     C    0.40080   0.81687   0.45522   1.000
    O95     O    0.34243   0.71701   0.42417   1.000
    O96     O    0.41455   0.84993   0.51006   1.000
    O97     O    0.44109   0.88218   0.42429   1.000
    C98     C    0.84920   0.18309   0.95523   1.000
    O99     O    0.90757   0.28294   0.92417   1.000
    O100    O    0.80891   0.11777   0.92430   1.000
    O101    O    0.83545   0.15002   0.01007   1.000
    C102    C    0.31968   0.88208   0.96009   1.000
    O103    O    0.31126   0.94020   0.00819   1.000
    O104    O    0.31133   0.77540   0.97856   1.000
    C105    C    0.68032   0.11789   0.03989   1.000
    O106    O    0.68874   0.05977   0.99180   1.000
    O107    O    0.68868   0.22457   0.02143   1.000
    C108    C    0.30234   0.94857   0.71280   1.000
    O109    O    0.27800   0.95855   0.77072   1.000
    O110    O    0.26226   0.88722   0.70608   1.000
    O111    O    0.35135   0.94857   0.67359   1.000
    C112    C    0.34920   0.18309   0.95523   1.000
    O113    O    0.30891   0.11777   0.92430   1.000
    O114    O    0.33545   0.15003   0.01006   1.000
    O115    O    0.40757   0.28294   0.92417   1.000
    O116    O    0.04248   0.90218   0.55911   1.000
    O117    O    0.79248   0.90217   0.94088   1.000
    O118    O    0.20753   0.09779   0.05910   1.000
    O119    O    0.95752   0.09779   0.44088   1.000
    O120    O    0.45752   0.09779   0.44088   1.000
    O121    O    0.70753   0.09779   0.05911   1.000
    O122    O    0.29248   0.90217   0.94088   1.000
    O123    O    0.54248   0.90218   0.55911   1.000
loop_
    _geom_bond_atom_site_label_1
    _geom_bond_atom_site_label_2
    _geom_bond_distance
    _geom_bond_site_symmetry_2
    _ccdc_geom_bond_type
    N8     O9        0.69559      .   S
    Zr2    O9        2.08676      .   S
    N10    O11       0.69531      .   S
    Zr0    O11       2.08593      .   S
    N12    O13       0.69549      .   S
    Zr1    O13       2.08648      .   S
    N16    O17       0.69553      .   S
    Zr3    O17       2.08658      .   S
    N18    O19       0.69549      .   S
    Zr4    O19       2.08646      .   S
    N21    O22       0.69548      .   S
    Zr5    O22       2.08645      .   S
    N24    O25       0.69553      .   S
    Zr7    O25       2.08660      .   S
    N26    O27       0.69553      .   S
    Zr6    O27       2.08660      .   S
    C28    O29       1.10530      .   S
    Zr5    O29       2.28179      .   S
    C28    O30       1.14482      .   S
    Zr3    O30       2.35708      .   S
    C28    O31       0.83309      .   S
    N16    O31       2.12518      .   S
    C32    O33       1.35983      .   S
    N20    O33       3.29311  1_655   S
    C32    O34       1.18451      .   S
    Zr4    O34       2.44605  1_545   S
    C35    O36       1.36063      .   S
    N23    O36       3.29388      .   S
    C35    O37       1.18451      .   S
    Zr5    O37       2.44605  1_545   S
    C38    O39       1.40367      .   S
    N10    O39       9.56099  1_565   S
    C38    O40       1.02140      .   S
    Zr1    O40       2.18200  1_665   S
    C38    O41       1.05809      .   S
    Zr4    O41       2.21974      .   S
    C42    O43       1.14494      .   S
    Zr5    O43       2.35722      .   S
    C42    O44       1.10532      .   S
    Zr2    O44       2.28192      .   S
    C42    O45       0.83309      .   S
    N21    O45       2.12541      .   S
    C46    O47       1.10523      .   S
    Zr4    O47       2.28208      .   S
    C46    O48       1.14469      .   S
    Zr2    O48       2.35711      .   S
    C46    O49       0.83313      .   S
    N8     O49       2.12503      .   S
    C50    O51       1.40367      .   S
    N16    O51       9.56120  1_645   S
    C50    O52       1.05797  1_554   S
    Zr6    O52       2.21958      .   S
    C50    O53       1.02135      .   S
    Zr2    O53       2.18193  1_545   S
    C54    O55       1.36142      .   S
    N20    O55       3.29472      .   S
    C54    O56       1.18453      .   S
    Zr1    O56       2.44612  1_565   S
    C57    O58       1.40366      .   S
    N8     O58       9.56119  1_545   S
    C57    O59       1.05797  1_554   S
    Zr7    O59       2.21959      .   S
    C57    O60       1.02139      .   S
    Zr3    O60       2.18201  1_545   S
    C61    O62       1.10530      .   S
    Zr7    O62       2.28183      .   S
    C61    O63       0.83309      .   S
    N10    O63       2.12610      .   S
    C61    O64       1.14491      .   S
    Zr0    O64       2.35717      .   S
    C65    O66       1.10530      .   S
    Zr6    O66       2.28182      .   S
    C65    O67       0.83309      .   S
    N12    O67       2.12543  1_655   S
    C65    O68       1.14491      .   S
    Zr1    O68       2.35718  1_655   S
    C69    O70       1.18445  1_554   S
    Zr6    O70       2.44588  1_565   S
    C69    O71       1.36065      .   S
    N14    O71       3.29397  1_556   S
    C72    O73       1.02140      .   S
    Zr0    O73       2.18199  1_565   S
    C72    O74       1.40367      .   S
    N12    O74       9.56126  1_565   S
    C72    O75       1.05809      .   S
    Zr5    O75       2.21974      .   S
    C76    O77       0.83309      .   S
    N18    O77       2.12542  1_455   S
    C76    O78       1.10526      .   S
    Zr3    O78       2.28179      .   S
    C76    O79       1.14495      .   S
    Zr4    O79       2.35723  1_455   S
    C80    O81       0.83309      .   S
    N24    O81       2.12538      .   S
    C80    O82       1.14498      .   S
    Zr7    O82       2.35723      .   S
    C80    O83       1.10523      .   S
    Zr1    O83       2.28164      .   S
    C84    O85       1.18444  1_556   S
    Zr3    O85       2.44603  1_545   S
    C84    O86       1.36061      .   S
    N15    O86       3.29386      .   S
    C87    O88       1.36062      .   S
    N23    O88       3.29392      .   S
    C87    O89       1.18453      .   S
    Zr0    O89       2.44612  1_565   S
    C90    O91       1.05810      .   S
    Zr1    O91       2.21976      .   S
    C90    O92       1.02141      .   S
    Zr4    O92       2.18202  1_445   S
    C90    O93       1.40374      .   S
    N21    O93       9.56129  1_545   S
    C94    O95       1.40374      .   S
    N18    O95       9.56130  1_545   S
    C94    O96       1.05809      .   S
    Zr0    O96       2.21976      .   S
    C94    O97       1.02140      .   S
    Zr5    O97       2.18201  1_545   S
    C98    O99       1.40377      .   S
    N26    O99       9.56114  1_465   S
    C98    O100      1.02137      .   S
    Zr7    O100      2.18200  1_565   S
    C98    O101      1.05797  1_556   S
    Zr3    O101      2.21956      .   S
    C102   O103      1.18441  1_556   S
    Zr2    O103      2.44587  1_545   S
    C102   O104      1.36063      .   S
    N14    O104      3.29387      .   S
    C105   O106      1.18443  1_554   S
    Zr7    O106      2.44599  1_565   S
    C105   O107      1.36067      .   S
    N15    O107      3.29398  1_556   S
    C108   O109      1.14492      .   S
    Zr6    O109      2.35718      .   S
    C108   O110      0.83309      .   S
    N26    O110      2.12534      .   S
    C108   O111      1.10521      .   S
    Zr0    O111      2.28171      .   S
    C112   O113      1.02138      .   S
    Zr6    O113      2.18200  1_565   S
    C112   O114      1.05789  1_556   S
    Zr2    O114      2.21934      .   S
    C112   O115      1.40379      .   S
    N24    O115      9.56110  1_565   S
    C32    O116      0.71061      .   S
    Zr1    O116      1.92938  1_655   S
    C84    O117      0.71058      .   S
    Zr7    O117      1.92924      .   S
    Zr2    O118      1.92922      .   S
    C69    O118      0.71055      .   S
    C54    O119      0.71060      .   S
    Zr4    O119      1.92934  1_455   S
    C87    O120      0.71060      .   S
    Zr5    O120      1.92932      .   S
    C105   O121      0.71059      .   S
    Zr3    O121      1.92929      .   S
    Zr6    O122      1.92919      .   S
    C102   O122      0.71057      .   S
    Zr0    O123      1.92936      .   S
    C35    O123      0.71061      .   S
