# CIF file generated by openbabel 2.4.90, see http://openbabel.sf.net
data_I
_chemical_name_common ''
_cell_length_a 17.434
_cell_length_b 12.841
_cell_length_c 17.875
_cell_angle_alpha 90.002
_cell_angle_beta 89.998
_cell_angle_gamma 112.94
_space_group_name_H-M_alt 'P 1'
_space_group_name_Hall 'P 1'
loop_
    _symmetry_equiv_pos_as_xyz
    x,y,z
loop_
    _atom_site_label
    _atom_site_type_symbol
    _atom_site_fract_x
    _atom_site_fract_y
    _atom_site_fract_z
    _atom_site_occupancy
    Zr0     Zr   0.46695   0.95406   0.61103   1.000
    Zr1     Zr   0.96695   0.95406   0.61103   1.000
    Zr2     Zr   0.28305   0.04591   0.11100   1.000
    Zr3     Zr   0.78305   0.04591   0.11102   1.000
    Zr4     Zr   0.03305   0.04591   0.38897   1.000
    Zr5     Zr   0.53304   0.04591   0.38897   1.000
    Zr6     Zr   0.21696   0.95405   0.88898   1.000
    Zr7     Zr   0.71696   0.95405   0.88898   1.000
    N8      N    0.32995   0.21639   0.21826   1.000
    O9      O    0.31822   0.17377   0.19145   1.000
    N10     N    0.42005   0.78358   0.71820   1.000
    O11     O    0.43178   0.82620   0.69141   1.000
    N12     N    0.92005   0.78358   0.71826   1.000
    O13     O    0.93178   0.82620   0.69145   1.000
    N14     N    0.25001   0.49999   1.00000   1.000
    N15     N    0.75001   0.49999   0.99999   1.000
    N16     N    0.82995   0.21639   0.21826   1.000
    O17     O    0.81822   0.17377   0.19145   1.000
    N18     N    0.07994   0.21638   0.28174   1.000
    O19     O    0.06822   0.17376   0.30855   1.000
    N20     N    0.99937   0.49999   0.49999   1.000
    N21     N    0.57994   0.21638   0.28174   1.000
    O22     O    0.56822   0.17376   0.30855   1.000
    N23     N    0.50001   0.49999   0.49999   1.000
    N24     N    0.67005   0.78356   0.78174   1.000
    O25     O    0.68178   0.82619   0.80855   1.000
    N26     N    0.17006   0.78356   0.78174   1.000
    O27     O    0.18178   0.82619   0.80855   1.000
    C28     C    0.69767   0.05139   0.28719   1.000
    O29     O    0.64865   0.05139   0.32641   1.000
    O30     O    0.72200   0.04141   0.22927   1.000
    O31     O    0.73774   0.11274   0.29391   1.000
    C32     C    0.06969   0.88209   0.53989   1.000
    O33     O    0.06117   0.77540   0.52143   1.000
    O34     O    0.04022   0.88713   0.57092   1.000
    O35     O    0.06126   0.94019   0.49179   1.000
    O36     O    0.04474   0.91723   0.54730   1.000
    C37     C    0.56968   0.88209   0.53989   1.000
    O38     O    0.56133   0.77540   0.52143   1.000
    O39     O    0.54022   0.88713   0.57092   1.000
    O40     O    0.56126   0.94019   0.49179   1.000
    O41     O    0.54474   0.91723   0.54730   1.000
    C42     C    0.09920   0.18310   0.54478   1.000
    O43     O    0.15757   0.28295   0.57582   1.000
    O44     O    0.05891   0.11778   0.57571   1.000
    O45     O    0.08545   0.15003   0.48994   1.000
    C46     C    0.44766   0.05137   0.21279   1.000
    O47     O    0.47200   0.04140   0.27071   1.000
    O48     O    0.39864   0.05138   0.17358   1.000
    O49     O    0.48773   0.11272   0.20608   1.000
    C50     C    0.19767   0.05139   0.28716   1.000
    O51     O    0.14865   0.05139   0.32637   1.000
    O52     O    0.22201   0.04141   0.22925   1.000
    O53     O    0.23774   0.11274   0.29389   1.000
    C54     C    0.15080   0.81687   0.04477   1.000
    O55     O    0.09243   0.71702   0.07582   1.000
    O56     O    0.16455   0.84993   0.98993   1.000
    O57     O    0.19109   0.88219   0.07569   1.000
    C58     C    0.93032   0.11789   0.46011   1.000
    O59     O    0.95978   0.11285   0.42908   1.000
    O60     O    0.93852   0.22457   0.47857   1.000
    O61     O    0.93874   0.05977   0.50821   1.000
    O62     O    0.95526   0.08274   0.45269   1.000
    C63     C    0.65080   0.81687   0.04477   1.000
    O64     O    0.59243   0.71702   0.07582   1.000
    O65     O    0.66455   0.84993   0.98993   1.000
    O66     O    0.69109   0.88219   0.07570   1.000
    C67     C    0.55234   0.94859   0.78720   1.000
    O68     O    0.60136   0.94859   0.82641   1.000
    O69     O    0.51227   0.88724   0.79392   1.000
    O70     O    0.52800   0.95857   0.72928   1.000
    C71     C    0.05234   0.94859   0.78720   1.000
    O72     O    0.10136   0.94859   0.82641   1.000
    O73     O    0.01227   0.88724   0.79392   1.000
    O74     O    0.02800   0.95857   0.72928   1.000
    C75     C    0.18032   0.11789   0.03989   1.000
    O76     O    0.18874   0.05977   0.99179   1.000
    O77     O    0.20526   0.08274   0.04729   1.000
    O78     O    0.18868   0.22457   0.02143   1.000
    O79     O    0.20979   0.11285   0.07091   1.000
    C80     C    0.59920   0.18310   0.54478   1.000
    O81     O    0.55891   0.11778   0.57571   1.000
    O82     O    0.65757   0.28294   0.57582   1.000
    O83     O    0.58545   0.15003   0.48994   1.000
    C84     C    0.94766   0.05137   0.21279   1.000
    O85     O    0.98773   0.11272   0.20608   1.000
    O86     O    0.89864   0.05138   0.17358   1.000
    O87     O    0.97200   0.04140   0.27071   1.000
    C88     C    0.80233   0.94857   0.71279   1.000
    O89     O    0.76226   0.88722   0.70608   1.000
    O90     O    0.77800   0.95855   0.77072   1.000
    O91     O    0.85135   0.94857   0.67358   1.000
    C92     C    0.81968   0.88208   0.96010   1.000
    O93     O    0.79022   0.88712   0.92908   1.000
    O94     O    0.81126   0.94020   0.00820   1.000
    O95     O    0.79474   0.91723   0.95269   1.000
    O96     O    0.81133   0.77540   0.97856   1.000
    C97     C    0.43032   0.11789   0.46011   1.000
    O98     O    0.43868   0.22457   0.47856   1.000
    O99     O    0.43874   0.05977   0.50821   1.000
    O100    O    0.45526   0.08274   0.45269   1.000
    O101    O    0.45979   0.11285   0.42908   1.000
    C102    C    0.90080   0.81686   0.45522   1.000
    O103    O    0.91455   0.84993   0.51006   1.000
    O104    O    0.94109   0.88218   0.42429   1.000
    O105    O    0.84243   0.71701   0.42417   1.000
    C106    C    0.40080   0.81687   0.45522   1.000
    O107    O    0.34243   0.71701   0.42417   1.000
    O108    O    0.41455   0.84993   0.51006   1.000
    O109    O    0.44109   0.88218   0.42429   1.000
    C110    C    0.84920   0.18309   0.95523   1.000
    O111    O    0.90757   0.28294   0.92417   1.000
    O112    O    0.80891   0.11777   0.92430   1.000
    O113    O    0.83545   0.15002   0.01007   1.000
    C114    C    0.31968   0.88208   0.96009   1.000
    O115    O    0.31126   0.94020   0.00819   1.000
    O116    O    0.29474   0.91723   0.95268   1.000
    O117    O    0.29022   0.88712   0.92907   1.000
    O118    O    0.31133   0.77540   0.97856   1.000
    C119    C    0.68032   0.11789   0.03989   1.000
    O120    O    0.70979   0.11285   0.07092   1.000
    O121    O    0.68874   0.05977   0.99180   1.000
    O122    O    0.70526   0.08274   0.04731   1.000
    O123    O    0.68868   0.22457   0.02143   1.000
    C124    C    0.30234   0.94857   0.71280   1.000
    O125    O    0.27800   0.95855   0.77072   1.000
    O126    O    0.26226   0.88722   0.70608   1.000
    O127    O    0.35135   0.94857   0.67359   1.000
    C128    C    0.34920   0.18309   0.95523   1.000
    O129    O    0.30891   0.11777   0.92430   1.000
    O130    O    0.33545   0.15003   0.01006   1.000
    O131    O    0.40757   0.28294   0.92417   1.000
loop_
    _geom_bond_atom_site_label_1
    _geom_bond_atom_site_label_2
    _geom_bond_distance
    _geom_bond_site_symmetry_2
    _ccdc_geom_bond_type
    N8     O9        0.69559      .   S
    Zr2    O9        2.08676      .   S
    N10    O11       0.69531      .   S
    Zr0    O11       2.08593      .   S
    N12    O13       0.69549      .   S
    Zr1    O13       2.08648      .   S
    N16    O17       0.69553      .   S
    Zr3    O17       2.08658      .   S
    N18    O19       0.69549      .   S
    Zr4    O19       2.08646      .   S
    N21    O22       0.69548      .   S
    Zr5    O22       2.08645      .   S
    N24    O25       0.69553      .   S
    Zr7    O25       2.08660      .   S
    N26    O27       0.69553      .   S
    Zr6    O27       2.08660      .   S
    C28    O29       1.10530      .   S
    Zr5    O29       2.28179      .   S
    C28    O30       1.14482      .   S
    Zr3    O30       2.35708      .   S
    C28    O31       0.83309      .   S
    N16    O31       2.12518      .   S
    C32    O33       1.35983      .   S
    N20    O33       3.29311  1_655   S
    C32    O34       0.77568      .   S
    Zr1    O34       1.93391  1_655   S
    C32    O35       1.18451      .   S
    Zr4    O35       2.44605  1_545   S
    C32    O36       0.75058      .   S
    Zr1    O36       1.96472  1_655   S
    C37    O38       1.36063      .   S
    N23    O38       3.29388      .   S
    C37    O39       0.77567      .   S
    Zr0    O39       1.93389      .   S
    C37    O40       1.18451      .   S
    Zr5    O40       2.44605  1_545   S
    C37    O41       0.75057      .   S
    Zr0    O41       1.96470      .   S
    C42    O43       1.40367      .   S
    N10    O43       9.56099  1_565   S
    C42    O44       1.02140      .   S
    Zr1    O44       2.18200  1_665   S
    C42    O45       1.05809      .   S
    Zr4    O45       2.21974      .   S
    C46    O47       1.14494      .   S
    Zr5    O47       2.35722      .   S
    C46    O48       1.10532      .   S
    Zr2    O48       2.28192      .   S
    C46    O49       0.83309      .   S
    N21    O49       2.12541      .   S
    C50    O51       1.10523      .   S
    Zr4    O51       2.28208      .   S
    C50    O52       1.14469      .   S
    Zr2    O52       2.35711      .   S
    C50    O53       0.83313      .   S
    N8     O53       2.12503      .   S
    C54    O55       1.40367      .   S
    N16    O55       9.56120  1_645   S
    C54    O56       1.05797  1_554   S
    Zr6    O56       2.21958      .   S
    C54    O57       1.02135      .   S
    Zr2    O57       2.18193  1_545   S
    C58    O59       0.77565      .   S
    Zr4    O59       1.93389  1_455   S
    C58    O60       1.36142      .   S
    N20    O60       3.29472      .   S
    C58    O61       1.18453      .   S
    Zr1    O61       2.44612  1_565   S
    C58    O62       0.75059      .   S
    Zr4    O62       1.96466  1_455   S
    C63    O64       1.40366      .   S
    N8     O64       9.56119  1_545   S
    C63    O65       1.05797  1_554   S
    Zr7    O65       2.21959      .   S
    C63    O66       1.02139      .   S
    Zr3    O66       2.18201  1_545   S
    C67    O68       1.10530      .   S
    Zr7    O68       2.28183      .   S
    C67    O69       0.83309      .   S
    N10    O69       2.12610      .   S
    C67    O70       1.14491      .   S
    Zr0    O70       2.35717      .   S
    C71    O72       1.10530      .   S
    Zr6    O72       2.28182      .   S
    C71    O73       0.83309      .   S
    N12    O73       2.12543  1_655   S
    C71    O74       1.14491      .   S
    Zr1    O74       2.35718  1_655   S
    C75    O76       1.18445  1_554   S
    Zr6    O76       2.44588  1_565   S
    C75    O77       0.75055      .   S
    Zr2    O77       1.96453      .   S
    C75    O78       1.36065      .   S
    N14    O78       3.29397  1_556   S
    C75    O79       0.77559      .   S
    Zr2    O79       1.93378      .   S
    C80    O81       1.02140      .   S
    Zr0    O81       2.18199  1_565   S
    C80    O82       1.40367      .   S
    N12    O82       9.56126  1_565   S
    C80    O83       1.05809      .   S
    Zr5    O83       2.21974      .   S
    C84    O85       0.83309      .   S
    N18    O85       2.12542  1_455   S
    C84    O86       1.10526      .   S
    Zr3    O86       2.28179      .   S
    C84    O87       1.14495      .   S
    Zr4    O87       2.35723  1_455   S
    C88    O89       0.83309      .   S
    N24    O89       2.12538      .   S
    C88    O90       1.14498      .   S
    Zr7    O90       2.35723      .   S
    C88    O91       1.10523      .   S
    Zr1    O91       2.28164      .   S
    C92    O93       0.77558      .   S
    Zr7    O93       1.93383      .   S
    C92    O94       1.18444  1_556   S
    Zr3    O94       2.44603  1_545   S
    C92    O95       0.75058      .   S
    Zr7    O95       1.96451      .   S
    C92    O96       1.36061      .   S
    N15    O96       3.29386      .   S
    C97    O98       1.36062      .   S
    N23    O98       3.29392      .   S
    C97    O99       1.18453      .   S
    Zr0    O99       2.44612  1_565   S
    C97    O100      0.75058      .   S
    Zr5    O100      1.96464      .   S
    C97    O101      0.77565      .   S
    Zr5    O101      1.93386      .   S
    C102   O103      1.05810      .   S
    Zr1    O103      2.21976      .   S
    C102   O104      1.02141      .   S
    Zr4    O104      2.18202  1_445   S
    C102   O105      1.40374      .   S
    N21    O105      9.56129  1_545   S
    C106   O107      1.40374      .   S
    N18    O107      9.56130  1_545   S
    C106   O108      1.05809      .   S
    Zr0    O108      2.21976      .   S
    C106   O109      1.02140      .   S
    Zr5    O109      2.18201  1_545   S
    C110   O111      1.40377      .   S
    N26    O111      9.56114  1_465   S
    C110   O112      1.02137      .   S
    Zr7    O112      2.18200  1_565   S
    C110   O113      1.05797  1_556   S
    Zr3    O113      2.21956      .   S
    C114   O115      1.18441  1_556   S
    Zr2    O115      2.44587  1_545   S
    C114   O116      0.75057      .   S
    Zr6    O116      1.96448      .   S
    C114   O117      0.77560      .   S
    Zr6    O117      1.93377      .   S
    C114   O118      1.36063      .   S
    N14    O118      3.29387      .   S
    C119   O120      0.77561      .   S
    Zr3    O120      1.93385      .   S
    C119   O121      1.18443  1_554   S
    Zr7    O121      2.44599  1_565   S
    C119   O122      0.75057      .   S
    Zr3    O122      1.96459      .   S
    C119   O123      1.36067      .   S
    N15    O123      3.29398  1_556   S
    C124   O125      1.14492      .   S
    Zr6    O125      2.35718      .   S
    C124   O126      0.83309      .   S
    N26    O126      2.12534      .   S
    C124   O127      1.10521      .   S
    Zr0    O127      2.28171      .   S
    C128   O129      1.02138      .   S
    Zr6    O129      2.18200  1_565   S
    C128   O130      1.05789  1_556   S
    Zr2    O130      2.21934      .   S
    C128   O131      1.40379      .   S
    N24    O131      9.56110  1_565   S
