# CIF file generated by openbabel 2.4.90, see http://openbabel.sf.net
data_I
_chemical_name_common ''
_cell_length_a 14.418
_cell_length_b 14.304
_cell_length_c 15.436
_cell_angle_alpha 89.978
_cell_angle_beta 90
_cell_angle_gamma 89.985
_space_group_name_H-M_alt 'P 1'
_space_group_name_Hall 'P 1'
loop_
    _symmetry_equiv_pos_as_xyz
    x,y,z
loop_
    _atom_site_label
    _atom_site_type_symbol
    _atom_site_fract_x
    _atom_site_fract_y
    _atom_site_fract_z
    _atom_site_occupancy
    Zr0     Zr   0.25000   0.25067   0.24996   1.000
    Zr1     Zr   0.25000   0.25053   0.74985   1.000
    Zr2     Zr   0.25000   0.74993   0.25010   1.000
    Zr3     Zr   0.74999   0.25042   0.25000   1.000
    Zr4     Zr   0.74999   0.25043   0.74999   1.000
    Zr5     Zr   0.74999   0.74959   0.24997   1.000
    Zr6     Zr   0.74999   0.74959   0.74997   1.000
    N7      N    0.74998   0.00001   0.24498   1.000
    O8      O    0.74997   0.91301   0.24746   1.000
    O9      O    0.74999   0.08701   0.23499   1.000
    N10     N    0.50000   0.25031   0.24999   1.000
    O11     O    0.58672   0.25030   0.25000   1.000
    O12     O    0.41328   0.25043   0.24998   1.000
    N13     N    0.74997   0.00001   0.74996   1.000
    O14     O    0.74997   0.91301   0.74997   1.000
    O15     O    0.74999   0.08701   0.74997   1.000
    N16     N    0.00000   0.25012   0.74999   1.000
    O17     O    0.91327   0.25021   0.74999   1.000
    O18     O    0.08673   0.25022   0.74995   1.000
    N19     N    0.00000   0.25026   0.24995   1.000
    O20     O    0.91327   0.25029   0.24997   1.000
    O21     O    0.08673   0.25039   0.24995   1.000
    N22     N    0.25012   0.00048   0.24955   1.000
    O23     O    0.25006   0.91345   0.24970   1.000
    O24     O    0.25009   0.08742   0.24964   1.000
    N25     N    0.74994   0.50001   0.24997   1.000
    O26     O    0.74995   0.41324   0.24996   1.000
    O27     O    0.74996   0.58678   0.24997   1.000
    N28     N    0.24997   0.50046   0.25042   1.000
    O29     O    0.24997   0.41364   0.25029   1.000
    O30     O    0.25000   0.58720   0.25035   1.000
    N31     N    0.74993   0.50001   0.74998   1.000
    O32     O    0.74994   0.41324   0.74998   1.000
    O33     O    0.74995   0.58678   0.74998   1.000
    N34     N    0.00000   0.74996   0.25001   1.000
    O35     O    0.91327   0.74984   0.25000   1.000
    O36     O    0.08673   0.74999   0.25004   1.000
    N37     N    0.50000   0.25017   0.74994   1.000
    O38     O    0.41327   0.25027   0.74992   1.000
    O39     O    0.58672   0.25022   0.74996   1.000
loop_
    _geom_bond_atom_site_label_1
    _geom_bond_atom_site_label_2
    _geom_bond_distance
    _geom_bond_site_symmetry_2
    _ccdc_geom_bond_type
    N7     O8        1.24503  1_545   S
    Zr5    O8        2.33785      .   S
    N7     O9        1.25388      .   S
    Zr3    O9        2.34901      .   S
    N10    O11       1.25033      .   S
    Zr3    O11       2.35403      .   S
    N10    O12       1.25038      .   S
    Zr0    O12       2.35408      .   S
    N13    O14       1.24445  1_545   S
    Zr6    O14       2.33753      .   S
    N13    O15       1.24444      .   S
    Zr4    O15       2.33750      .   S
    N16    O17       1.25046  1_455   S
    Zr4    O17       2.35425      .   S
    N16    O18       1.25042      .   S
    Zr1    O18       2.35405      .   S
    N19    O20       1.25046  1_455   S
    Zr3    O20       2.35425      .   S
    N19    O21       1.25042      .   S
    Zr0    O21       2.35406      .   S
    N22    O23       1.24491  1_545   S
    Zr2    O23       2.33898      .   S
    N22    O24       1.24361      .   S
    Zr0    O24       2.33520      .   S
    N25    O26       1.24112      .   S
    Zr3    O26       2.32901      .   S
    N25    O27       1.24109      .   S
    Zr5    O27       2.32889      .   S
    N28    O29       1.24190      .   S
    Zr0    O29       2.33105      .   S
    N28    O30       1.24070      .   S
    Zr2    O30       2.32770      .   S
    N31    O32       1.24111      .   S
    Zr4    O32       2.32896      .   S
    N31    O33       1.24110      .   S
    Zr6    O33       2.32892      .   S
    N34    O35       1.25045  1_455   S
    Zr5    O35       2.35422      .   S
    N34    O36       1.25042      .   S
    Zr2    O36       2.35411      .   S
    N37    O38       1.25037      .   S
    Zr1    O38       2.35406      .   S
    N37    O39       1.25034      .   S
    Zr4    O39       2.35406      .   S
