# CIF file generated by openbabel 2.4.90, see http://openbabel.sf.net
data_I
_chemical_name_common 'VESTA_phase_1'
_cell_length_a 20.636
_cell_length_b 15.499
_cell_length_c 23.722
_cell_angle_alpha 89.798
_cell_angle_beta 89.984
_cell_angle_gamma 90.015
_space_group_name_H-M_alt 'P 1'
_space_group_name_Hall 'P 1'
loop_
    _symmetry_equiv_pos_as_xyz
    x,y,z
loop_
    _atom_site_label
    _atom_site_type_symbol
    _atom_site_fract_x
    _atom_site_fract_y
    _atom_site_fract_z
    _atom_site_occupancy
    Zn0     Zn   0.30518   0.30355   0.01989   1.000
    Zn1     Zn   0.80519   0.30355   0.01989   1.000
    Zn2     Zn   0.20534   0.13719   0.98016   1.000
    Zn3     Zn   0.70535   0.13719   0.98016   1.000
    Zn4     Zn   0.44733   0.69600   0.51898   1.000
    Zn5     Zn   0.94734   0.69600   0.51898   1.000
    Zn6     Zn   0.04715   0.86317   0.48107   1.000
    Zn7     Zn   0.54716   0.86317   0.48107   1.000
    Zn8     Zn   0.19733   0.80400   0.48100   1.000
    Zn9     Zn   0.69734   0.80400   0.48103   1.000
    Zn10    Zn   0.29713   0.63683   0.51897   1.000
    Zn11    Zn   0.79714   0.63683   0.51890   1.000
    Zn12    Zn   0.05516   0.19645   0.98014   1.000
    Zn13    Zn   0.55518   0.19645   0.98014   1.000
    Zn14    Zn   0.45536   0.36283   0.01983   1.000
    Zn15    Zn   0.95538   0.36283   0.01980   1.000
    H16     H    0.01440   0.10892   0.82200   1.000
    H17     H    0.51442   0.10892   0.82200   1.000
    H18     H    0.99863   0.05647   0.72412   1.000
    H19     H    0.49865   0.05647   0.72412   1.000
    H20     H    0.21575   0.03780   0.81630   1.000
    H21     H    0.71576   0.03780   0.81630   1.000
    H22     H    0.04409   0.98903   0.63736   1.000
    H23     H    0.54410   0.98904   0.63736   1.000
    H24     H    0.24573   0.92147   0.63021   1.000
    H25     H    0.74575   0.92147   0.63020   1.000
    H26     H    0.26155   0.97353   0.72867   1.000
    H27     H    0.76156   0.97353   0.72867   1.000
    H28     H    0.35046   0.07355   0.98120   1.000
    H29     H    0.85047   0.07355   0.98120   1.000
    H30     H    0.29354   0.25911   0.89249   1.000
    H31     H    0.79355   0.25911   0.89249   1.000
    H32     H    0.29140   0.25559   0.78807   1.000
    H33     H    0.79141   0.25559   0.78807   1.000
    H34     H    0.33840   0.13040   0.73666   1.000
    H35     H    0.83841   0.13041   0.73666   1.000
    H36     H    0.38844   0.00914   0.79096   1.000
    H37     H    0.88845   0.00914   0.79096   1.000
    H38     H    0.39137   0.01389   0.89541   1.000
    H39     H    0.89138   0.01389   0.89541   1.000
    H40     H    0.23693   0.89379   0.32365   1.000
    H41     H    0.73694   0.89379   0.32365   1.000
    H42     H    0.25314   0.94528   0.22517   1.000
    H43     H    0.75315   0.94528   0.22517   1.000
    H44     H    0.03556   0.96456   0.31652   1.000
    H45     H    0.53557   0.96456   0.31652   1.000
    H46     H    0.20813   0.01186   0.13772   1.000
    H47     H    0.70814   0.01186   0.13772   1.000
    H48     H    0.00640   0.07870   0.12920   1.000
    H49     H    0.50641   0.07870   0.12921   1.000
    H50     H    0.49012   0.02767   0.22804   1.000
    H51     H    0.99013   0.02767   0.22804   1.000
    H52     H    0.40195   0.92649   0.48054   1.000
    H53     H    0.90196   0.92649   0.48054   1.000
    H54     H    0.45916   0.74197   0.39205   1.000
    H55     H    0.95917   0.74196   0.39205   1.000
    H56     H    0.46098   0.74604   0.28760   1.000
    H57     H    0.96100   0.74603   0.28761   1.000
    H58     H    0.41337   0.87118   0.23603   1.000
    H59     H    0.91338   0.87118   0.23603   1.000
    H60     H    0.36304   0.99185   0.29018   1.000
    H61     H    0.86305   0.99185   0.29018   1.000
    H62     H    0.36047   0.98653   0.39466   1.000
    H63     H    0.86049   0.98653   0.39466   1.000
    H64     H    0.48692   0.60620   0.67630   1.000
    H65     H    0.98694   0.60619   0.67630   1.000
    H66     H    0.50314   0.55474   0.77477   1.000
    H67     H    0.00000   0.55473   0.77477   1.000
    H68     H    0.28554   0.53537   0.68356   1.000
    H69     H    0.78555   0.53538   0.68356   1.000
    H70     H    0.45813   0.48818   0.86226   1.000
    H71     H    0.95814   0.48818   0.86226   1.000
    H72     H    0.25639   0.42128   0.87090   1.000
    H73     H    0.75640   0.42129   0.87091   1.000
    H74     H    0.24009   0.47226   0.77207   1.000
    H75     H    0.74010   0.47226   0.77207   1.000
    H76     H    0.15188   0.57352   0.51951   1.000
    H77     H    0.65189   0.57352   0.51951   1.000
    H78     H    0.20911   0.75809   0.60797   1.000
    H79     H    0.70912   0.75809   0.60797   1.000
    H80     H    0.21096   0.75401   0.71241   1.000
    H81     H    0.71097   0.75401   0.71241   1.000
    H82     H    0.16337   0.62881   0.76400   1.000
    H83     H    0.66338   0.62881   0.76400   1.000
    H84     H    0.11303   0.50811   0.70980   1.000
    H85     H    0.61304   0.50811   0.70988   1.000
    H86     H    0.11044   0.51345   0.60540   1.000
    H87     H    0.61045   0.51345   0.60540   1.000
    H88     H    0.26439   0.39106   0.17787   1.000
    H89     H    0.76441   0.39106   0.17787   1.000
    H90     H    0.24862   0.44350   0.27595   1.000
    H91     H    0.74863   0.44351   0.27595   1.000
    H92     H    0.46576   0.46220   0.18371   1.000
    H93     H    0.96578   0.46219   0.18371   1.000
    H94     H    0.29408   0.51092   0.36271   1.000
    H95     H    0.79409   0.51092   0.36271   1.000
    H96     H    0.49575   0.57852   0.36978   1.000
    H97     H    0.99576   0.57851   0.36979   1.000
    H98     H    0.01155   0.52646   0.27133   1.000
    H99     H    0.51156   0.52647   0.27132   1.000
    H100    H    0.10051   0.42645   0.01881   1.000
    H101    H    0.60053   0.42645   0.01881   1.000
    H102    H    0.04351   0.24087   0.10753   1.000
    H103    H    0.54352   0.24087   0.10753   1.000
    H104    H    0.04138   0.24435   0.21195   1.000
    H105    H    0.54139   0.24436   0.21195   1.000
    H106    H    0.08840   0.36955   0.26335   1.000
    H107    H    0.58841   0.36955   0.26335   1.000
    H108    H    0.13844   0.49086   0.20904   1.000
    H109    H    0.63845   0.49087   0.20904   1.000
    H110    H    0.14136   0.48614   0.10459   1.000
    H111    H    0.64137   0.48614   0.10459   1.000
    C112    C    0.12439   0.10780   0.88348   1.000
    C113    C    0.62440   0.10780   0.88348   1.000
    C114    C    0.11631   0.07555   0.82467   1.000
    C115    C    0.61632   0.07555   0.82467   1.000
    C116    C    0.05452   0.08147   0.79844   1.000
    C117    C    0.55453   0.08147   0.79844   1.000
    C118    C    0.04608   0.05240   0.74420   1.000
    C119    C    0.54610   0.05240   0.74420   1.000
    C120    C    0.09875   0.01698   0.71340   1.000
    C121    C    0.59877   0.01698   0.71340   1.000
    C122    C    0.16138   0.01172   0.73973   1.000
    C123    C    0.66139   0.01172   0.73973   1.000
    C124    C    0.16858   0.04121   0.79576   1.000
    C125    C    0.66859   0.04121   0.79576   1.000
    C126    C    0.09141   0.98642   0.65768   1.000
    C127    C    0.59142   0.98642   0.65768   1.000
    C128    C    0.14348   0.95234   0.62839   1.000
    C129    C    0.64349   0.95234   0.62839   1.000
    C130    C    0.20554   0.94812   0.65426   1.000
    C131    C    0.70555   0.94812   0.65426   1.000
    C132    C    0.21408   0.97692   0.70855   1.000
    C133    C    0.71409   0.97692   0.70855   1.000
    C134    C    0.13395   0.91735   0.57040   1.000
    C135    C    0.63396   0.91735   0.57040   1.000
    C136    C    0.40931   0.18554   0.98263   1.000
    C137    C    0.90932   0.18554   0.98263   1.000
    C138    C    0.34604   0.14030   0.96497   1.000
    C139    C    0.84605   0.14030   0.96497   1.000
    C140    C    0.34256   0.13678   0.90080   1.000
    C141    C    0.84257   0.13678   0.90080   1.000
    C142    C    0.31443   0.20446   0.87020   1.000
    C143    C    0.81445   0.20446   0.87020   1.000
    C144    C    0.31308   0.20217   0.81139   1.000
    C145    C    0.81309   0.20217   0.81139   1.000
    C146    C    0.33974   0.13216   0.78261   1.000
    C147    C    0.83975   0.13216   0.78260   1.000
    C148    C    0.36762   0.06424   0.81299   1.000
    C149    C    0.86763   0.06425   0.81299   1.000
    C150    C    0.36907   0.06663   0.87182   1.000
    C151    C    0.86909   0.06663   0.87182   1.000
    C152    C    0.12686   0.89526   0.38460   1.000
    C153    C    0.62687   0.89526   0.38460   1.000
    C154    C    0.13503   0.92719   0.32556   1.000
    C155    C    0.63505   0.92718   0.32550   1.000
    C156    C    0.19693   0.92104   0.29950   1.000
    C157    C    0.69694   0.92104   0.29950   1.000
    C158    C    0.20560   0.94955   0.24513   1.000
    C159    C    0.70561   0.94954   0.24513   1.000
    C160    C    0.15305   0.98456   0.21379   1.000
    C161    C    0.65306   0.98456   0.21379   1.000
    C162    C    0.09028   0.98994   0.23988   1.000
    C163    C    0.59030   0.98994   0.23988   1.000
    C164    C    0.08284   0.96108   0.29618   1.000
    C165    C    0.58286   0.96107   0.29618   1.000
    C166    C    0.16068   0.01454   0.15782   1.000
    C167    C    0.66069   0.01454   0.15782   1.000
    C168    C    0.10872   0.04814   0.12801   1.000
    C169    C    0.60874   0.04814   0.12801   1.000
    C170    C    0.04651   0.05243   0.15364   1.000
    C171    C    0.54653   0.05243   0.15364   1.000
    C172    C    0.03771   0.02422   0.20816   1.000
    C173    C    0.53772   0.02422   0.20816   1.000
    C174    C    0.11842   0.08263   0.06973   1.000
    C175    C    0.61843   0.08263   0.06973   1.000
    C176    C    0.34301   0.81447   0.48187   1.000
    C177    C    0.84302   0.81447   0.48187   1.000
    C178    C    0.40631   0.85992   0.46400   1.000
    C179    C    0.90633   0.85992   0.46430   1.000
    C180    C    0.40975   0.86395   0.40015   1.000
    C181    C    0.90977   0.86395   0.40015   1.000
    C182    C    0.43803   0.79660   0.36967   1.000
    C183    C    0.93805   0.79659   0.36967   1.000
    C184    C    0.43918   0.79919   0.31085   1.000
    C185    C    0.93920   0.79919   0.31086   1.000
    C186    C    0.41218   0.86919   0.28198   1.000
    C187    C    0.91220   0.86918   0.28198   1.000
    C188    C    0.38414   0.93676   0.31227   1.000
    C189    C    0.88415   0.93676   0.31220   1.000
    C190    C    0.38289   0.93409   0.37111   1.000
    C191    C    0.88291   0.93408   0.37111   1.000
    C192    C    0.37683   0.60474   0.61542   1.000
    C193    C    0.87684   0.60474   0.61543   1.000
    C194    C    0.38502   0.57278   0.67444   1.000
    C195    C    0.88503   0.57278   0.67445   1.000
    C196    C    0.44692   0.57895   0.70040   1.000
    C197    C    0.94693   0.57894   0.70042   1.000
    C198    C    0.45559   0.55045   0.75484   1.000
    C199    C    0.95561   0.55044   0.75484   1.000
    C200    C    0.40305   0.51543   0.78621   1.000
    C201    C    0.90306   0.51542   0.78621   1.000
    C202    C    0.34027   0.51001   0.76010   1.000
    C203    C    0.84029   0.51001   0.76017   1.000
    C204    C    0.33283   0.53887   0.70380   1.000
    C205    C    0.83284   0.53887   0.70387   1.000
    C206    C    0.41068   0.48548   0.84219   1.000
    C207    C    0.91069   0.48548   0.84219   1.000
    C208    C    0.35872   0.45187   0.87203   1.000
    C209    C    0.85874   0.45187   0.87200   1.000
    C210    C    0.29651   0.44755   0.84640   1.000
    C211    C    0.79652   0.44755   0.84645   1.000
    C212    C    0.28770   0.47574   0.79192   1.000
    C213    C    0.78771   0.47574   0.79192   1.000
    C214    C    0.36843   0.41740   0.93031   1.000
    C215    C    0.86845   0.41739   0.93031   1.000
    C216    C    0.09299   0.68553   0.51816   1.000
    C217    C    0.59300   0.68553   0.51816   1.000
    C218    C    0.15627   0.64010   0.53574   1.000
    C219    C    0.65628   0.64010   0.53574   1.000
    C220    C    0.15970   0.63607   0.59988   1.000
    C221    C    0.65971   0.63607   0.59980   1.000
    C222    C    0.18799   0.70344   0.63035   1.000
    C223    C    0.68800   0.70344   0.63036   1.000
    C224    C    0.18916   0.70083   0.68916   1.000
    C225    C    0.68917   0.70083   0.68917   1.000
    C226    C    0.16217   0.63081   0.71805   1.000
    C227    C    0.66218   0.63081   0.71806   1.000
    C228    C    0.13412   0.56322   0.68770   1.000
    C229    C    0.63413   0.56322   0.68778   1.000
    C230    C    0.13285   0.56591   0.62894   1.000
    C231    C    0.63286   0.56591   0.62890   1.000
    C232    C    0.37440   0.39221   0.11654   1.000
    C233    C    0.87441   0.39220   0.11650   1.000
    C234    C    0.36631   0.42445   0.17536   1.000
    C235    C    0.86633   0.42444   0.17536   1.000
    C236    C    0.30452   0.41852   0.20161   1.000
    C237    C    0.80453   0.41852   0.20161   1.000
    C238    C    0.29608   0.44758   0.25580   1.000
    C239    C    0.79609   0.44758   0.25580   1.000
    C240    C    0.34875   0.48300   0.28665   1.000
    C241    C    0.84876   0.48300   0.28665   1.000
    C242    C    0.41139   0.48827   0.26029   1.000
    C243    C    0.91140   0.48826   0.26030   1.000
    C244    C    0.41859   0.45879   0.20426   1.000
    C245    C    0.91860   0.45878   0.20426   1.000
    C246    C    0.34141   0.51354   0.34237   1.000
    C247    C    0.84142   0.51354   0.34237   1.000
    C248    C    0.39349   0.54763   0.37164   1.000
    C249    C    0.89350   0.54763   0.37164   1.000
    C250    C    0.45555   0.55186   0.34575   1.000
    C251    C    0.95556   0.55185   0.34575   1.000
    C252    C    0.46409   0.52307   0.29140   1.000
    C253    C    0.96410   0.52306   0.29146   1.000
    C254    C    0.38395   0.58262   0.42960   1.000
    C255    C    0.88397   0.58263   0.42964   1.000
    C256    C    0.15931   0.31446   0.01738   1.000
    C257    C    0.65933   0.31446   0.01738   1.000
    C258    C    0.09605   0.35970   0.03504   1.000
    C259    C    0.59606   0.35970   0.03500   1.000
    C260    C    0.09255   0.36322   0.09921   1.000
    C261    C    0.59256   0.36322   0.09921   1.000
    C262    C    0.06441   0.29552   0.12981   1.000
    C263    C    0.56442   0.29553   0.12981   1.000
    C264    C    0.06306   0.29780   0.18862   1.000
    C265    C    0.56307   0.29780   0.18862   1.000
    C266    C    0.08973   0.36781   0.21740   1.000
    C267    C    0.58974   0.36781   0.21740   1.000
    C268    C    0.11761   0.43575   0.18701   1.000
    C269    C    0.61762   0.43575   0.18701   1.000
    C270    C    0.11906   0.43338   0.12810   1.000
    C271    C    0.61907   0.43338   0.12810   1.000
    O272    O    0.17763   0.08864   0.90866   1.000
    O273    O    0.67764   0.08864   0.90866   1.000
    O274    O    0.07795   0.15163   0.90369   1.000
    O275    O    0.57796   0.15163   0.90369   1.000
    O276    O    0.07651   0.92166   0.54994   1.000
    O277    O    0.57652   0.92166   0.54994   1.000
    O278    O    0.18330   0.88510   0.54606   1.000
    O279    O    0.68331   0.88510   0.54600   1.000
    O280    O    0.29209   0.18178   0.99018   1.000
    O281    O    0.79210   0.18178   0.99018   1.000
    O282    O    0.40275   0.25171   0.01459   1.000
    O283    O    0.90276   0.25171   0.01459   1.000
    O284    O    0.46201   0.15552   0.96530   1.000
    O285    O    0.96202   0.15552   0.96530   1.000
    O286    O    0.07369   0.91462   0.40978   1.000
    O287    O    0.57371   0.91462   0.40978   1.000
    O288    O    0.17314   0.85124   0.40504   1.000
    O289    O    0.67315   0.85123   0.40504   1.000
    O290    O    0.17577   0.07795   0.04914   1.000
    O291    O    0.67578   0.07795   0.04914   1.000
    O292    O    0.06914   0.11504   0.04527   1.000
    O293    O    0.56915   0.11504   0.04527   1.000
    O294    O    0.46021   0.81803   0.48946   1.000
    O295    O    0.96022   0.81803   0.48940   1.000
    O296    O    0.34972   0.74783   0.51366   1.000
    O297    O    0.84973   0.74782   0.51366   1.000
    O298    O    0.29021   0.84453   0.46460   1.000
    O299    O    0.79023   0.84453   0.46462   1.000
    O300    O    0.32366   0.58538   0.59026   1.000
    O301    O    0.82367   0.58538   0.59026   1.000
    O302    O    0.42312   0.64879   0.59490   1.000
    O303    O    0.92313   0.64878   0.59490   1.000
    O304    O    0.42579   0.42206   0.95086   1.000
    O305    O    0.92580   0.42206   0.95086   1.000
    O306    O    0.31914   0.38501   0.95481   1.000
    O307    O    0.81916   0.38501   0.95482   1.000
    O308    O    0.21020   0.68197   0.51056   1.000
    O309    O    0.71021   0.68197   0.51056   1.000
    O310    O    0.09973   0.75217   0.48635   1.000
    O311    O    0.59974   0.75217   0.48635   1.000
    O312    O    0.04017   0.65546   0.53541   1.000
    O313    O    0.54018   0.65546   0.53541   1.000
    O314    O    0.42765   0.41138   0.09135   1.000
    O315    O    0.92766   0.41138   0.09135   1.000
    O316    O    0.32795   0.34838   0.09633   1.000
    O317    O    0.82796   0.34838   0.09633   1.000
    O318    O    0.32652   0.57829   0.45013   1.000
    O319    O    0.82653   0.57828   0.45013   1.000
    O320    O    0.43332   0.61491   0.45394   1.000
    O321    O    0.93333   0.61491   0.45390   1.000
    O322    O    0.04210   0.31823   0.00983   1.000
    O323    O    0.54211   0.31823   0.00983   1.000
    O324    O    0.15274   0.24830   0.98541   1.000
    O325    O    0.65275   0.24830   0.98541   1.000
    O326    O    0.21202   0.34447   0.03460   1.000
    O327    O    0.71203   0.34447   0.03460   1.000
loop_
    _geom_bond_atom_site_label_1
    _geom_bond_atom_site_label_2
    _geom_bond_distance
    _geom_bond_site_symmetry_2
    _ccdc_geom_bond_type
    O323   Zn14      1.93394      .   S
    O323   C259      1.41850      .   S
    O322   Zn15      1.93337  1_455   S
    O322   C258      1.41891      .   S
    O283   Zn15      2.03988      .   S
    O283   C137      1.28459  1_554   S
    O282   Zn14      2.03992      .   S
    O282   C136      1.28459  1_554   S
    C257   O327      1.25197      .   S
    C257   C259      1.54037      .   S
    C257   O325      1.28472  1_554   S
    C256   O326      1.25199      .   S
    C256   C258      1.54062      .   S
    C256   O324      1.28471  1_554   S
    H101   C259      1.10608      .   S
    H100   C258      1.10640      .   S
    Zn15   O315      1.94494      .   S
    Zn15   O305      1.96973  1_554   S
    Zn14   O314      1.94429      .   S
    Zn14   O304      1.97030  1_554   S
    Zn1    O327      2.05476      .   S
    Zn1    O317      2.00021      .   S
    Zn1    O307      2.01145  1_554   S
    Zn0    O326      2.05474      .   S
    Zn0    O316      2.00020      .   S
    Zn0    O306      2.01156  1_554   S
    C259   C261      1.52605      .   S
    C258   C260      1.52511      .   S
    O293   C175      1.27348      .   S
    O293   Zn13      2.01215  1_554   S
    O292   C174      1.27346      .   S
    O292   Zn12      2.01219  1_554   S
    O291   C175      1.28233      .   S
    O291   Zn3       1.97015  1_554   S
    O290   C174      1.28233      .   S
    O290   Zn2       1.97015  1_554   S
    C174   C168      1.49391      .   S
    C175   C169      1.49391      .   S
    O315   C233      1.28454      .   S
    O314   C232      1.28500      .   S
    O316   C232      1.26982      .   S
    O317   C233      1.26943      .   S
    C261   C271      1.39882      .   S
    C261   C263      1.39966      .   S
    C260   C270      1.39882      .   S
    C260   C262      1.39965      .   S
    H111   C271      1.08984      .   S
    H110   C270      1.08984      .   S
    H102   C262      1.08901      .   S
    H103   C263      1.08902      .   S
    C233   C235      1.49395      .   S
    C232   C234      1.49307      .   S
    C168   C170      1.42200      .   S
    C168   C166      1.38521      .   S
    C169   C171      1.42198      .   S
    C169   C167      1.38522      .   S
    C270   C268      1.39839      .   S
    C271   C269      1.39839      .   S
    H48    C170      1.08895      .   S
    H49    C171      1.08883      .   S
    C263   C265      1.39593      .   S
    C262   C264      1.39593      .   S
    H47    C167      1.08984      .   S
    H46    C166      1.08986      .   S
    C170   C172      1.37576      .   S
    C171   C173      1.37577      .   S
    C167   C161      1.41386  1_545   S
    C166   C160      1.41385  1_545   S
    C234   C236      1.42183      .   S
    C234   C244      1.38552      .   S
    C235   C237      1.42187      .   S
    C235   C245      1.38552      .   S
    H88    C236      1.08881      .   S
    H89    C237      1.08881      .   S
    H92    C244      1.08977      .   S
    H93    C245      1.08978      .   S
    C268   H108      1.09117      .   S
    C268   C266      1.39770      .   S
    C269   H109      1.09117      .   S
    C269   C267      1.39771      .   S
    C264   H104      1.09036      .   S
    C264   C266      1.39707      .   S
    C265   H105      1.09036      .   S
    C265   C267      1.39707      .   S
    C236   C238      1.37467      .   S
    C237   C239      1.37463      .   S
    C245   C243      1.41501      .   S
    C244   C242      1.41481      .   S
    C172   H51       1.09057  1_455   S
    C172   C162      1.42243  1_545   S
    C173   H50       1.09100      .   S
    C173   C163      1.42245  1_545   S
    C161   C163      1.43790      .   S
    C161   C159      1.42164      .   S
    C160   C162      1.43792      .   S
    C160   C158      1.42163      .   S
    C267   H107      1.09079      .   S
    C266   H106      1.09079      .   S
    H43    C159      1.09133      .   S
    H42    C158      1.09133      .   S
    H59    C187      1.09062      .   S
    H58    C186      1.09062      .   S
    C163   C165      1.41530      .   S
    C162   C164      1.41529      .   S
    C158   C156      1.37349      .   S
    C159   C157      1.37350      .   S
    C238   H90       1.09138      .   S
    C238   C240      1.42178      .   S
    C239   H91       1.09140      .   S
    C239   C241      1.42179      .   S
    C242   C240      1.43785      .   S
    C242   C252      1.42171      .   S
    C243   C241      1.43776      .   S
    C243   C253      1.42233      .   S
    H99    C252      1.09044      .   S
    H98    C253      1.09053  1_455   S
    C186   C184      1.39703      .   S
    C186   C188      1.39768      .   S
    C187   C185      1.39713      .   S
    C187   C189      1.39683      .   S
    C240   C246      1.41367      .   S
    C241   C247      1.41366      .   S
    H56    C184      1.09027      .   S
    H57    C185      1.09027      .   S
    H61    C189      1.09022      .   S
    H60    C188      1.09100      .   S
    C252   C250      1.37710      .   S
    C253   C251      1.37576      .   S
    C164   H44       1.08992      .   S
    C164   C154      1.38551      .   S
    C165   H45       1.08990      .   S
    C165   C155      1.38480      .   S
    C156   H40       1.08930      .   S
    C156   C154      1.42221      .   S
    C157   H41       1.08930      .   S
    C157   C155      1.42159      .   S
    C184   C182      1.39596      .   S
    C185   C183      1.39573      .   S
    C189   C191      1.39816      .   S
    C188   C190      1.39650      .   S
    C155   C153      1.49458      .   S
    C154   C152      1.49325      .   S
    C247   H95       1.08987      .   S
    C247   C249      1.38528      .   S
    C246   H94       1.08984      .   S
    C246   C248      1.38526      .   S
    C250   H96       1.08880      .   S
    C250   C248      1.42167      .   S
    C251   H97       1.08891      .   S
    C251   C249      1.42170      .   S
    C183   H55       1.08900      .   S
    C183   C181      1.39951      .   S
    C182   H54       1.08901      .   S
    C182   C180      1.39949      .   S
    C191   H63       1.09088      .   S
    C191   C181      1.39950      .   S
    C190   H62       1.09087      .   S
    C190   C180      1.39951      .   S
    C249   C255      1.49367      .   S
    C248   C254      1.49278      .   S
    C153   O289      1.26925      .   S
    C153   O287      1.28515      .   S
    C152   O288      1.26922      .   S
    C152   O286      1.28517      .   S
    C180   C178      1.51736      .   S
    C181   C179      1.52446      .   S
    O288   Zn8       2.00587      .   S
    O289   Zn9       2.00647      .   S
    O287   Zn7       1.94569      .   S
    O286   Zn6       1.94566      .   S
    C254   O318      1.28291      .   S
    C254   O320      1.27413      .   S
    C255   O319      1.28249      .   S
    C255   O321      1.27327      .   S
    O319   Zn11      1.96542      .   S
    O318   Zn10      1.96673      .   S
    O321   Zn5       2.01508      .   S
    O320   Zn4       2.01431      .   S
    C178   H52       1.10883      .   S
    C178   C176      1.54258      .   S
    C178   O294      1.42172      .   S
    C179   H53       1.10631      .   S
    C179   C177      1.54064      .   S
    C179   O295      1.41811      .   S
    O298   Zn8       2.05355      .   S
    O298   C176      1.25343      .   S
    O299   Zn9       2.05362      .   S
    O299   C177      1.25327      .   S
    Zn8    O278      2.01474      .   S
    Zn9    O279      2.01310      .   S
    Zn7    O311      2.03776      .   S
    Zn7    O294      1.93557      .   S
    Zn7    O277      1.96693      .   S
    Zn6    O310      2.03775      .   S
    Zn6    O295      1.93496  1_455   S
    Zn6    O276      1.96695      .   S
    C176   O296      1.28434      .   S
    C177   O297      1.28437      .   S
    O310   C216      1.28450      .   S
    O311   C217      1.28448      .   S
    O308   Zn10      1.93577      .   S
    O308   C218      1.41880      .   S
    O309   Zn11      1.93562      .   S
    O309   C219      1.41882      .   S
    O296   Zn10      2.03734      .   S
    O297   Zn11      2.03723      .   S
    C216   O312      1.25329      .   S
    C216   C218      1.54076      .   S
    C217   O313      1.25331      .   S
    C217   C219      1.54075      .   S
    Zn11   O301      1.94741      .   S
    Zn10   O300      1.94597      .   S
    Zn5    O312      2.05319  1_655   S
    Zn5    O303      2.00467      .   S
    Zn4    O313      2.05364      .   S
    Zn4    O302      2.00464      .   S
    H76    C218      1.10634      .   S
    H77    C219      1.10634      .   S
    C218   C220      1.52425      .   S
    C219   C221      1.52235      .   S
    O279   C135      1.27447      .   S
    O278   C134      1.27381      .   S
    O277   C135      1.28255      .   S
    O276   C134      1.28255      .   S
    C135   C129      1.49349      .   S
    C134   C128      1.49349      .   S
    O301   C193      1.28529      .   S
    O300   C192      1.28518      .   S
    O302   C192      1.26985      .   S
    O303   C193      1.26992      .   S
    C221   C231      1.40001      .   S
    C221   C223      1.40065      .   S
    C220   C230      1.39954      .   S
    C220   C222      1.39955      .   S
    H87    C231      1.09040      .   S
    H86    C230      1.09088      .   S
    H79    C223      1.08903      .   S
    H78    C222      1.08891      .   S
    C192   C194      1.49309      .   S
    C193   C195      1.49311      .   S
    C128   C130      1.42170      .   S
    C128   C126      1.38529      .   S
    C129   C131      1.42169      .   S
    C129   C127      1.38528      .   S
    C231   C229      1.39748      .   S
    C230   C228      1.39463      .   S
    H25    C131      1.08900      .   S
    H24    C130      1.08886      .   S
    C222   C224      1.39575      .   S
    C223   C225      1.39575      .   S
    H22    C126      1.08983      .   S
    H23    C127      1.08981      .   S
    C131   C133      1.37587      .   S
    C130   C132      1.37586      .   S
    C126   C120      1.41381  1_565   S
    C127   C121      1.41382  1_565   S
    C194   C196      1.42163      .   S
    C194   C204      1.38483      .   S
    C195   C197      1.42175      .   S
    C195   C205      1.38555      .   S
    H65    C197      1.08865      .   S
    H64    C196      1.08839      .   S
    H69    C205      1.08988      .   S
    H68    C204      1.08914      .   S
    C228   H84       1.09102      .   S
    C228   C226      1.39861      .   S
    C229   H85       1.09102      .   S
    C229   C227      1.39776      .   S
    C224   H80       1.09039      .   S
    C224   C226      1.39710      .   S
    C225   H81       1.09027      .   S
    C225   C227      1.39710      .   S
    C196   C198      1.37513      .   S
    C197   C199      1.37468      .   S
    C204   C202      1.41535      .   S
    C205   C203      1.41535      .   S
    C132   H26       1.09104      .   S
    C132   C122      1.42237  1_565   S
    C133   H27       1.09102      .   S
    C133   C123      1.42238  1_565   S
    C121   C123      1.43773      .   S
    C121   C119      1.42102      .   S
    C120   C122      1.43773      .   S
    C120   C118      1.42101      .   S
    C226   H82       1.09065      .   S
    C227   H83       1.09041      .   S
    H19    C119      1.09078      .   S
    H18    C118      1.09079  1_655   S
    H35    C147      1.09058      .   S
    H34    C146      1.09082      .   S
    C123   C125      1.41491      .   S
    C122   C124      1.41490      .   S
    C118   C116      1.37588      .   S
    C119   C117      1.37589      .   S
    C199   H67       1.03320  1_655   S
    C199   C201      1.42153      .   S
    C198   H66       1.09130      .   S
    C198   C200      1.42154      .   S
    C202   C200      1.43852      .   S
    C202   C212      1.42321      .   S
    C203   C201      1.43782      .   S
    C203   C213      1.42232      .   S
    H75    C213      1.09101      .   S
    H74    C212      1.09102      .   S
    C147   C145      1.39711      .   S
    C147   C149      1.39777      .   S
    C146   C144      1.39701      .   S
    C146   C148      1.39765      .   S
    C201   C207      1.41404      .   S
    C200   C206      1.41405      .   S
    H33    C145      1.09030      .   S
    H32    C144      1.09030      .   S
    H36    C148      1.09112      .   S
    H37    C149      1.09111      .   S
    C212   C210      1.37490      .   S
    C213   C211      1.37600      .   S
    C125   H21       1.08976      .   S
    C125   C115      1.38549      .   S
    C124   H20       1.08978      .   S
    C124   C114      1.38548      .   S
    C117   H17       1.08642      .   S
    C117   C115      1.42184      .   S
    C116   H16       1.08642      .   S
    C116   C114      1.42183      .   S
    C145   C143      1.39596      .   S
    C144   C142      1.39596      .   S
    C148   C150      1.39652      .   S
    C149   C151      1.39652      .   S
    C114   C112      1.49296      .   S
    C115   C113      1.49296      .   S
    C206   H70       1.08982      .   S
    C206   C208      1.38507      .   S
    C207   H71       1.08984      .   S
    C207   C209      1.38470      .   S
    C210   H72       1.08940      .   S
    C210   C208      1.42241      .   S
    C211   H73       1.08890      .   S
    C211   C209      1.42161      .   S
    C143   H31       1.08907      .   S
    C143   C141      1.39975      .   S
    C142   H30       1.08906      .   S
    C142   C140      1.39975      .   S
    C151   H39       1.09087      .   S
    C151   C141      1.39983      .   S
    C150   H38       1.09087      .   S
    C150   C140      1.39981      .   S
    C209   C215      1.49466      .   S
    C208   C214      1.49399      .   S
    C112   O274      1.26979      .   S
    C112   O272      1.28499      .   S
    C113   O275      1.26979      .   S
    C113   O273      1.28502      .   S
    C140   C138      1.52512      .   S
    C141   C139      1.52512      .   S
    O275   Zn13      2.00027      .   S
    O274   Zn12      2.00028      .   S
    O272   Zn2       1.94404      .   S
    O273   Zn3       1.94403      .   S
    C215   O305      1.28234      .   S
    C215   O307      1.27350      .   S
    C214   O304      1.28235      .   S
    C214   O306      1.27344      .   S
    C139   H29       1.10641      .   S
    C139   C137      1.54057      .   S
    C139   O281      1.41889      .   S
    C138   H28       1.10640      .   S
    C138   C136      1.54058      .   S
    C138   O280      1.41889      .   S
    O285   Zn12      2.05474  1_655   S
    O285   C137      1.25293      .   S
    O284   Zn13      2.05520      .   S
    O284   C136      1.25293      .   S
    Zn3    O325      2.04010      .   S
    Zn3    O281      1.93384      .   S
    Zn2    O324      2.04010      .   S
    Zn2    O280      1.93384      .   S
    O280   Zn0       2.03484  1_556   S
    O281   Zn1       2.03484  1_556   S
    O282   Zn0       2.17184      .   S
    O283   Zn1       2.17184      .   S
    O294   Zn4       2.03191      .   S
    O295   Zn5       2.03242      .   S
    O296   Zn4       2.17218      .   S
    O297   Zn5       2.17218      .   S
    O308   Zn8       2.03236      .   S
    O309   Zn9       2.03209      .   S
    O310   Zn8       2.17173      .   S
    O311   Zn9       2.17169      .   S
    O322   Zn12      2.03492  1_554   S
    O323   Zn13      2.03492  1_554   S
    O324   Zn12      2.17159      .   S
    O325   Zn13      2.17159      .   S
