# CIF file generated by openbabel 2.4.90, see http://openbabel.sf.net
data_I
_chemical_name_common ''
_cell_length_a 21.836
_cell_length_b 13.243
_cell_length_c 13.24
_cell_angle_alpha 119.454
_cell_angle_beta 90.024
_cell_angle_gamma 90.096
_space_group_name_H-M_alt 'P 1'
_space_group_name_Hall 'P 1'
loop_
    _symmetry_equiv_pos_as_xyz
    x,y,z
loop_
    _atom_site_label
    _atom_site_type_symbol
    _atom_site_fract_x
    _atom_site_fract_y
    _atom_site_fract_z
    _atom_site_occupancy
    Zr0     Zr   0.25004   0.66824   0.33257   1.000
    Zr1     Zr   0.75004   0.66731   0.33244   1.000
    Zr2     Zr   0.24999   0.33278   0.66759   1.000
    Zr3     Zr   0.74999   0.33185   0.66745   1.000
    N4      N    0.50001   0.00005   0.50001   1.000
    O5      O    0.60934   0.13038   0.58464   1.000
    O6      O    0.39061   0.13101   0.54776   1.000
    O7      O    0.60941   0.86908   0.45227   1.000
    O8      O    0.39069   0.86971   0.41537   1.000
    N9      N    0.50001   0.50004   0.50001   1.000
    O10     O    0.39065   0.45276   0.58434   1.000
    O11     O    0.60931   0.41554   0.54750   1.000
    O12     O    0.39072   0.58455   0.45252   1.000
    O13     O    0.60937   0.54733   0.41569   1.000
    N14     N    0.00001   0.50005   0.50001   1.000
    O15     O    0.10936   0.54789   0.41586   1.000
    O16     O    0.10937   0.41590   0.54746   1.000
    O17     O    0.89066   0.58420   0.45257   1.000
    O18     O    0.89067   0.45220   0.58417   1.000
    N19     N    0.00001   0.00004   0.50000   1.000
    O20     O    0.10929   0.13087   0.58465   1.000
    O21     O    0.89074   0.86921   0.41536   1.000
    O22     O    0.10947   0.86956   0.45239   1.000
    O23     O    0.89055   0.13052   0.54760   1.000
    N24     N    0.50001   0.50005   0.00000   1.000
    O25     O    0.60946   0.45205   0.86916   1.000
    O26     O    0.60937   0.58446   0.13059   1.000
    O27     O    0.39057   0.54804   0.13085   1.000
    O28     O    0.39065   0.41563   0.86942   1.000
    N29     N    0.00001   0.50005   0.00000   1.000
    O30     O    0.89061   0.54755   0.13082   1.000
    O31     O    0.10932   0.58488   0.13065   1.000
    O32     O    0.10941   0.45254   0.86919   1.000
    O33     O    0.89070   0.41522   0.86937   1.000
loop_
    _geom_bond_atom_site_label_1
    _geom_bond_atom_site_label_2
    _geom_bond_distance
    _geom_bond_site_symmetry_2
    _ccdc_geom_bond_type
    N4     O5        2.83111      .   S
    Zr3    O5        3.85315      .   S
    N4     O6        2.83750      .   S
    Zr2    O6        3.86634      .   S
    N4     O7        2.83750  1_545   S
    Zr1    O7        3.86637      .   S
    N4     O8        2.83110  1_545   S
    Zr0    O8        3.85312      .   S
    N9     O10       2.83305      .   S
    Zr2    O10       3.85776      .   S
    N9     O11       2.83608      .   S
    Zr3    O11       3.86338      .   S
    N9     O12       2.83606      .   S
    Zr0    O12       3.86335      .   S
    N9     O13       2.83305      .   S
    Zr1    O13       3.85778      .   S
    N14    O15       2.83469      .   S
    Zr0    O15       3.86098      .   S
    N14    O16       2.83458      .   S
    Zr2    O16       3.85981      .   S
    N14    O17       2.83457  1_455   S
    Zr1    O17       3.85976      .   S
    N14    O18       2.83468  1_455   S
    Zr3    O18       3.86096      .   S
    N19    O20       2.83302      .   S
    Zr2    O20       3.85703      .   S
    N19    O21       2.83297  1_445   S
    Zr1    O21       3.85696      .   S
    N19    O22       2.83545  1_545   S
    Zr0    O22       3.86236      .   S
    N19    O23       2.83546  1_455   S
    Zr3    O23       3.86238      .   S
    N24    O25       2.83582  1_554   S
    Zr3    O25       3.86338      .   S
    N24    O26       2.83349      .   S
    Zr1    O26       3.85727      .   S
    N24    O27       2.83587      .   S
    Zr0    O27       3.86342      .   S
    N24    O28       2.83342  1_554   S
    Zr2    O28       3.85714      .   S
    N29    O30       2.83535  1_455   S
    Zr1    O30       3.86303      .   S
    N29    O31       2.83336      .   S
    Zr0    O31       3.85826      .   S
    N29    O32       2.83529  1_554   S
    Zr2    O32       3.86295      .   S
    N29    O33       2.83329  1_454   S
    Zr3    O33       3.85818      .   S
