# CIF file generated by openbabel 2.4.90, see http://openbabel.sf.net
data_I
_chemical_name_common ''
_cell_length_a 13.144
_cell_length_b 13.126
_cell_length_c 13.66
_cell_angle_alpha 89.933
_cell_angle_beta 89.933
_cell_angle_gamma 89.989
_space_group_name_H-M_alt 'P 1'
_space_group_name_Hall 'P 1'
loop_
    _symmetry_equiv_pos_as_xyz
    x,y,z
loop_
    _atom_site_label
    _atom_site_type_symbol
    _atom_site_fract_x
    _atom_site_fract_y
    _atom_site_fract_z
    _atom_site_occupancy
    H0      H    0.08281   0.31129   0.79432   1.000
    H1      H    0.08619   0.35677   0.67149   1.000
    H2      H    0.15908   0.42137   0.76546   1.000
    H3      H    0.04097   0.79386   0.97700   1.000
    H4      H    0.11786   0.85597   0.06829   1.000
    H5      H    0.00581   0.78965   0.10582   1.000
    H6      H    0.41724   0.18854   0.79284   1.000
    H7      H    0.41565   0.14254   0.67025   1.000
    H8      H    0.34235   0.07761   0.76399   1.000
    H9      H    0.45980   0.70616   0.97670   1.000
    H10     H    0.38294   0.64370   0.06805   1.000
    H11     H    0.49440   0.71090   0.10544   1.000
    H12     H    0.68848   0.58312   0.29420   1.000
    H13     H    0.64313   0.58636   0.17143   1.000
    H14     H    0.57817   0.65896   0.26554   1.000
    H15     H    0.20605   0.54019   0.47729   1.000
    H16     H    0.14390   0.61701   0.56871   1.000
    H17     H    0.21068   0.50504   0.60596   1.000
    H18     H    0.81033   0.91682   0.29468   1.000
    H19     H    0.85569   0.91383   0.17183   1.000
    H20     H    0.92043   0.84072   0.26572   1.000
    H21     H    0.29292   0.95892   0.47500   1.000
    H22     H    0.35587   0.88239   0.56614   1.000
    H23     H    0.28952   0.99458   0.60350   1.000
    H24     H    0.91717   0.68873   0.20566   1.000
    H25     H    0.91379   0.64326   0.32848   1.000
    H26     H    0.84086   0.57868   0.23452   1.000
    H27     H    0.95900   0.20615   0.02289   1.000
    H28     H    0.88215   0.14402   0.93168   1.000
    H29     H    0.99418   0.21037   0.89416   1.000
    H30     H    0.58279   0.81138   0.20714   1.000
    H31     H    0.58434   0.85739   0.32972   1.000
    H32     H    0.65767   0.92232   0.23600   1.000
    H33     H    0.54020   0.29371   0.02329   1.000
    H34     H    0.61704   0.35620   0.93195   1.000
    H35     H    0.50559   0.28900   0.89455   1.000
    H36     H    0.31149   0.41681   0.70574   1.000
    H37     H    0.35684   0.41357   0.82850   1.000
    H38     H    0.42182   0.34099   0.73440   1.000
    H39     H    0.79394   0.45980   0.52262   1.000
    H40     H    0.85606   0.38296   0.43121   1.000
    H41     H    0.78929   0.49493   0.39395   1.000
    H42     H    0.18967   0.08318   0.70527   1.000
    H43     H    0.14433   0.08618   0.82813   1.000
    H44     H    0.07958   0.15928   0.73423   1.000
    H45     H    0.70709   0.04104   0.52499   1.000
    H46     H    0.64412   0.11758   0.43380   1.000
    H47     H    0.71047   0.00539   0.39648   1.000
    C48     C    0.05643   0.55812   0.93210   1.000
    C49     C    0.99137   0.48048   0.89843   1.000
    C50     C    0.06409   0.57833   0.03323   1.000
    C51     C    0.08923   0.37951   0.74868   1.000
    C52     C    0.06822   0.79077   0.05283   1.000
    C53     C    0.44414   0.94219   0.93183   1.000
    C54     C    0.50931   0.01995   0.89847   1.000
    C55     C    0.43562   0.92151   0.03287   1.000
    C56     C    0.41198   0.12009   0.74750   1.000
    C57     C    0.43219   0.70920   0.05238   1.000
    C58     C    0.44161   0.55575   0.43198   1.000
    C59     C    0.51963   0.49102   0.39845   1.000
    C60     C    0.42134   0.56395   0.53307   1.000
    C61     C    0.62036   0.58923   0.24866   1.000
    C62     C    0.20917   0.56754   0.55298   1.000
    C63     C    0.05733   0.94326   0.43193   1.000
    C64     C    0.97973   0.00852   0.39854   1.000
    C65     C    0.07836   0.93565   0.53290   1.000
    C66     C    0.87845   0.91063   0.24900   1.000
    C67     C    0.29049   0.93187   0.55087   1.000
    C68     C    0.94347   0.44191   0.06786   1.000
    C69     C    0.00854   0.51952   0.10154   1.000
    C70     C    0.93583   0.42165   0.96673   1.000
    C71     C    0.91073   0.62052   0.25100   1.000
    C72     C    0.93176   0.20924   0.94715   1.000
    C73     C    0.55589   0.05770   0.06810   1.000
    C74     C    0.49072   0.97994   0.10150   1.000
    C75     C    0.56440   0.07842   0.96709   1.000
    C76     C    0.58803   0.87984   0.25242   1.000
    C77     C    0.56780   0.29068   0.94761   1.000
    C78     C    0.55835   0.44422   0.56797   1.000
    C79     C    0.48034   0.50897   0.60151   1.000
    C80     C    0.57864   0.43604   0.46688   1.000
    C81     C    0.37961   0.41071   0.75129   1.000
    C82     C    0.79079   0.43244   0.44694   1.000
    C83     C    0.94267   0.05673   0.56804   1.000
    C84     C    0.02028   0.99147   0.60144   1.000
    C85     C    0.92163   0.06434   0.46708   1.000
    C86     C    0.12156   0.08937   0.75095   1.000
    C87     C    0.70951   0.06810   0.44912   1.000
loop_
    _geom_bond_atom_site_label_1
    _geom_bond_atom_site_label_2
    _geom_bond_distance
    _geom_bond_site_symmetry_2
    _ccdc_geom_bond_type
    H27    C72       1.09592  1_554   S
    H33    C77       1.09597  1_554   S
    C55    C74       1.41253      .   S
    C55    C53       1.41065  1_554   S
    C50    C69       1.41302      .   S
    C50    C48       1.41070  1_554   S
    C57    H10       1.09707      .   S
    C57    H11       1.09358      .   S
    C57    H9        1.09600  1_554   S
    C52    H4        1.09711      .   S
    C52    H5        1.09355      .   S
    C52    H3        1.09712  1_554   S
    C68    C69       1.40835  1_655   S
    C68    C70       1.41080  1_554   S
    C73    C74       1.40784  1_545   S
    C73    C75       1.41035  1_554   S
    H13    C61       1.09694      .   S
    H19    C66       1.09687      .   S
    H24    C71       1.09140      .   S
    H30    C76       1.09370      .   S
    H26    C71       1.09388      .   S
    H32    C76       1.09471      .   S
    C61    H14       1.09475      .   S
    C61    H12       1.09372      .   S
    C66    H20       1.09466      .   S
    C66    H18       1.09380      .   S
    C71    H25       1.10077      .   S
    C76    H31       1.09696      .   S
    H41    C82       1.09349      .   S
    H47    C87       1.09360      .   S
    C59    C58       1.40820      .   S
    C59    C80       1.41280      .   S
    C64    C63       1.40783  1_645   S
    C64    C85       1.41286      .   S
    H40    C82       1.09708      .   S
    C63    C65       1.41043      .   S
    C58    C60       1.41027      .   S
    H46    C87       1.09727      .   S
    C82    H39       1.09561      .   S
    C87    H45       1.09558      .   S
    C80    C78       1.41030      .   S
    C85    C83       1.41031      .   S
    H21    C67       1.09555      .   S
    H15    C62       1.09568      .   S
    C65    C84       1.41286      .   S
    C60    C79       1.41285      .   S
    C67    H22       1.09708      .   S
    C67    H23       1.09357      .   S
    C62    H16       1.09709      .   S
    C62    H17       1.09349      .   S
    C78    C79       1.40823      .   S
    C83    C84       1.40786  1_645   S
    H7     C56       1.09630      .   S
    H1     C51       1.09697      .   S
    H42    C86       1.09377      .   S
    H36    C81       1.09379      .   S
    H44    C86       1.09465      .   S
    H38    C81       1.09476      .   S
    C56    H8        1.09486      .   S
    C56    H6        1.09412      .   S
    C51    H2        1.09471      .   S
    C51    H0        1.09370      .   S
    C86    H43       1.09702      .   S
    C81    H37       1.09668      .   S
    H29    C72       1.09362      .   S
    H35    C77       1.09361      .   S
    C49    C48       1.40838  1_655   S
    C49    C70       1.41306      .   S
    C54    C53       1.40777  1_545   S
    C54    C75       1.41260      .   S
    H28    C72       1.09715      .   S
    H34    C77       1.09710      .   S
