# CIF file generated by openbabel 2.4.90, see http://openbabel.sf.net
data_I
_chemical_name_common ''
_cell_length_a 13.144
_cell_length_b 13.126
_cell_length_c 13.66
_cell_angle_alpha 89.933
_cell_angle_beta 89.933
_cell_angle_gamma 89.989
_space_group_name_H-M_alt 'P 1'
_space_group_name_Hall 'P 1'
loop_
    _symmetry_equiv_pos_as_xyz
    x,y,z
loop_
    _atom_site_label
    _atom_site_type_symbol
    _atom_site_fract_x
    _atom_site_fract_y
    _atom_site_fract_z
    _atom_site_occupancy
    C0      C    0.05643   0.55812   0.93210   1.000
    C1      C    0.99137   0.48048   0.89843   1.000
    C2      C    0.06409   0.57833   0.03323   1.000
    C3      C    0.44414   0.94219   0.93183   1.000
    C4      C    0.50931   0.01995   0.89847   1.000
    C5      C    0.43562   0.92151   0.03287   1.000
    C6      C    0.44161   0.55575   0.43198   1.000
    C7      C    0.51963   0.49102   0.39845   1.000
    C8      C    0.42134   0.56395   0.53307   1.000
    C9      C    0.05733   0.94326   0.43193   1.000
    C10     C    0.97973   0.00852   0.39854   1.000
    C11     C    0.07836   0.93565   0.53290   1.000
    C12     C    0.94347   0.44191   0.06786   1.000
    C13     C    0.00854   0.51952   0.10154   1.000
    C14     C    0.93583   0.42165   0.96673   1.000
    C15     C    0.55589   0.05770   0.06810   1.000
    C16     C    0.49072   0.97994   0.10150   1.000
    C17     C    0.56440   0.07842   0.96709   1.000
    C18     C    0.55835   0.44422   0.56797   1.000
    C19     C    0.48034   0.50897   0.60151   1.000
    C20     C    0.57864   0.43604   0.46688   1.000
    C21     C    0.94267   0.05673   0.56804   1.000
    C22     C    0.02028   0.99147   0.60144   1.000
    C23     C    0.92163   0.06434   0.46708   1.000
loop_
    _geom_bond_atom_site_label_1
    _geom_bond_atom_site_label_2
    _geom_bond_distance
    _geom_bond_site_symmetry_2
    _ccdc_geom_bond_type
    C5     C16       1.41253      .   S
    C5     C3        1.41065  1_554   S
    C2     C13       1.41302      .   S
    C2     C0        1.41070  1_554   S
    C12    C13       1.40835  1_655   S
    C12    C14       1.41080  1_554   S
    C15    C16       1.40784  1_545   S
    C15    C17       1.41035  1_554   S
    C7     C6        1.40820      .   S
    C7     C20       1.41280      .   S
    C10    C9        1.40783  1_645   S
    C10    C23       1.41286      .   S
    C9     C11       1.41043      .   S
    C6     C8        1.41027      .   S
    C20    C18       1.41030      .   S
    C23    C21       1.41031      .   S
    C11    C22       1.41286      .   S
    C8     C19       1.41285      .   S
    C18    C19       1.40823      .   S
    C21    C22       1.40786  1_645   S
    C1     C0        1.40838  1_655   S
    C1     C14       1.41306      .   S
    C4     C3        1.40777  1_545   S
    C4     C17       1.41260      .   S
