# CIF file generated by openbabel 2.4.90, see http://openbabel.sf.net
data_I
_chemical_name_common ''
_cell_length_a 13.144
_cell_length_b 13.126
_cell_length_c 13.66
_cell_angle_alpha 89.933
_cell_angle_beta 89.933
_cell_angle_gamma 89.989
_space_group_name_H-M_alt 'P 1'
_space_group_name_Hall 'P 1'
loop_
    _symmetry_equiv_pos_as_xyz
    x,y,z
loop_
    _atom_site_label
    _atom_site_type_symbol
    _atom_site_fract_x
    _atom_site_fract_y
    _atom_site_fract_z
    _atom_site_occupancy
    Ag0     Ag   0.67554   0.16852   0.75137   1.000
    Ag1     Ag   0.66743   0.32510   0.25070   1.000
    Ag2     Ag   0.83115   0.17422   0.25102   1.000
    Ag3     Ag   0.17416   0.66704   0.24952   1.000
    Ag4     Ag   0.32442   0.83145   0.24857   1.000
    Ag5     Ag   0.33249   0.67483   0.74925   1.000
    Ag6     Ag   0.16885   0.82578   0.74897   1.000
    Ag7     Ag   0.82580   0.33292   0.75044   1.000
    C8      C    0.12065   0.62050   0.86075   1.000
    C9      C    0.05643   0.55812   0.93210   1.000
    C10     C    0.99137   0.48048   0.89843   1.000
    C11     C    0.06409   0.57833   0.03323   1.000
    C12     C    0.38060   0.88009   0.86016   1.000
    C13     C    0.44414   0.94219   0.93183   1.000
    C14     C    0.50931   0.01995   0.89847   1.000
    C15     C    0.43562   0.92151   0.03287   1.000
    C16     C    0.37898   0.61928   0.36046   1.000
    C17     C    0.44161   0.55575   0.43198   1.000
    C18     C    0.51963   0.49102   0.39845   1.000
    C19     C    0.42134   0.56395   0.53307   1.000
    C20     C    0.11928   0.87909   0.36030   1.000
    C21     C    0.05733   0.94326   0.43193   1.000
    C22     C    0.97973   0.00852   0.39854   1.000
    C23     C    0.07836   0.93565   0.53290   1.000
    C24     C    0.87930   0.37948   0.13922   1.000
    C25     C    0.94347   0.44191   0.06786   1.000
    C26     C    0.00854   0.51952   0.10154   1.000
    C27     C    0.93583   0.42165   0.96673   1.000
    C28     C    0.61940   0.11985   0.13978   1.000
    C29     C    0.55589   0.05770   0.06810   1.000
    C30     C    0.49072   0.97994   0.10150   1.000
    C31     C    0.56440   0.07842   0.96709   1.000
    C32     C    0.62101   0.38073   0.63951   1.000
    C33     C    0.55835   0.44422   0.56797   1.000
    C34     C    0.48034   0.50897   0.60151   1.000
    C35     C    0.57864   0.43604   0.46688   1.000
    C36     C    0.88072   0.12091   0.63958   1.000
    C37     C    0.94267   0.05673   0.56804   1.000
    C38     C    0.02028   0.99147   0.60144   1.000
    C39     C    0.92163   0.06434   0.46708   1.000
    S40     S    0.98140   0.46353   0.76886   1.000
    S41     S    0.14891   0.67901   0.06658   1.000
    S42     S    0.52040   0.03715   0.76896   1.000
    S43     S    0.35079   0.82050   0.06560   1.000
    S44     S    0.53692   0.48087   0.26890   1.000
    S45     S    0.32050   0.64870   0.56626   1.000
    S46     S    0.96214   0.01871   0.26904   1.000
    S47     S    0.17923   0.85081   0.56580   1.000
    S48     S    0.01853   0.53646   0.23111   1.000
    S49     S    0.85102   0.32096   0.93338   1.000
    S50     S    0.47960   0.96277   0.23101   1.000
    S51     S    0.64925   0.17942   0.93435   1.000
    S52     S    0.46303   0.51909   0.73106   1.000
    S53     S    0.67947   0.35126   0.43370   1.000
    S54     S    0.03786   0.98129   0.73094   1.000
    S55     S    0.82076   0.14917   0.43418   1.000
    O56     O    0.08403   0.70656   0.83764   1.000
    O57     O    0.20388   0.58065   0.83420   1.000
    O58     O    0.41767   0.79426   0.83710   1.000
    O59     O    0.29753   0.91998   0.83334   1.000
    O60     O    0.29330   0.58198   0.33763   1.000
    O61     O    0.41831   0.70268   0.33349   1.000
    O62     O    0.20506   0.91598   0.33705   1.000
    O63     O    0.07956   0.79581   0.33388   1.000
    O64     O    0.91596   0.29343   0.16233   1.000
    O65     O    0.79606   0.41928   0.16573   1.000
    O66     O    0.58229   0.20566   0.16285   1.000
    O67     O    0.70248   0.08000   0.16662   1.000
    O68     O    0.70669   0.41803   0.66233   1.000
    O69     O    0.58169   0.29733   0.66647   1.000
    O70     O    0.79494   0.08403   0.66291   1.000
    O71     O    0.92044   0.20420   0.66607   1.000
loop_
    _geom_bond_atom_site_label_1
    _geom_bond_atom_site_label_2
    _geom_bond_distance
    _geom_bond_site_symmetry_2
    _ccdc_geom_bond_type
    C15    S43       1.78861      .   S
    C15    C30       1.41253      .   S
    C15    C13       1.41065  1_554   S
    C11    S41       1.78888      .   S
    C11    C26       1.41302      .   S
    C11    C9        1.41070  1_554   S
    S43    Ag4       2.52713      .   S
    S41    Ag3       2.52600      .   S
    C25    C26       1.40835  1_655   S
    C25    C24       1.52625      .   S
    C25    C27       1.41080  1_554   S
    C29    C30       1.40784  1_545   S
    C29    C28       1.52474      .   S
    C29    C31       1.41035  1_554   S
    C30    S50       1.78897      .   S
    C26    S48       1.78907      .   S
    C24    O64       1.26755      .   S
    C24    O65       1.26515      .   S
    C28    O66       1.26736      .   S
    C28    O67       1.26519      .   S
    O64    Ag2       2.26982      .   S
    O66    Ag1       2.27126      .   S
    O65    Ag1       2.39308      .   S
    O67    Ag2       2.39320      .   S
    S50    Ag4       2.68103      .   S
    S48    Ag3       2.68129      .   S
    Ag4    Ag3       2.92568      .   S
    Ag4    O61       2.39237      .   S
    Ag4    O62       2.26961      .   S
    Ag3    O63       2.39399      .   S
    Ag3    O60       2.26891      .   S
    Ag1    Ag2       2.92431      .   S
    Ag1    S44       2.68024      .   S
    Ag1    S53       2.52879      .   S
    Ag2    S46       2.68147      .   S
    Ag2    S55       2.52664      .   S
    S44    C18       1.78903      .   S
    S46    C22       1.78913      .   S
    O61    C16       1.26492      .   S
    O63    C20       1.26468      .   S
    O62    C20       1.26714      .   S
    O60    C16       1.26755      .   S
    C20    C21       1.52636      .   S
    C16    C17       1.52546      .   S
    C18    C17       1.40820      .   S
    C18    C35       1.41280      .   S
    C22    C21       1.40783  1_645   S
    C22    C39       1.41286      .   S
    C21    C23       1.41043      .   S
    C17    C19       1.41027      .   S
    S53    C35       1.78863      .   S
    S55    C39       1.78874      .   S
    C35    C33       1.41030      .   S
    C39    C37       1.41031      .   S
    C23    S47       1.78871      .   S
    C23    C38       1.41286      .   S
    C19    S45       1.78865      .   S
    C19    C34       1.41285      .   S
    S47    Ag6       2.52674      .   S
    S45    Ag5       2.52855      .   S
    C33    C34       1.40823      .   S
    C33    C32       1.52555      .   S
    C37    C38       1.40786  1_645   S
    C37    C36       1.52563      .   S
    C38    S54       1.78912      .   S
    C34    S52       1.78904      .   S
    C32    O68       1.26754      .   S
    C32    O69       1.26490      .   S
    C36    O70       1.26740      .   S
    C36    O71       1.26500      .   S
    O68    Ag7       2.26897      .   S
    O70    Ag0       2.26957      .   S
    O71    Ag7       2.39395      .   S
    O69    Ag0       2.39232      .   S
    S54    Ag6       2.68135      .   S
    S52    Ag5       2.68021      .   S
    Ag6    Ag5       2.92423      .   S
    Ag6    O59       2.39310      .   S
    Ag6    O56       2.26977      .   S
    Ag5    O57       2.39279      .   S
    Ag5    O58       2.27139      .   S
    Ag7    Ag0       2.92558      .   S
    Ag7    S40       2.68122      .   S
    Ag7    S49       2.52592      .   S
    Ag0    S42       2.68117      .   S
    Ag0    S51       2.52711      .   S
    S40    C10       1.78907      .   S
    S42    C14       1.78898      .   S
    O59    C12       1.26518      .   S
    O57    C8        1.26536      .   S
    O58    C12       1.26734      .   S
    O56    C8        1.26755      .   S
    C12    C13       1.52463      .   S
    C8     C9        1.52628      .   S
    C10    C9        1.40838  1_655   S
    C10    C27       1.41306      .   S
    C14    C13       1.40777  1_545   S
    C14    C31       1.41260      .   S
    S49    C27       1.78888      .   S
    S51    C31       1.78864      .   S
