# CIF file generated by openbabel 2.4.90, see http://openbabel.sf.net
data_I
_chemical_name_common ''
_cell_length_a 13.144
_cell_length_b 13.126
_cell_length_c 13.66
_cell_angle_alpha 89.933
_cell_angle_beta 89.933
_cell_angle_gamma 89.989
_space_group_name_H-M_alt 'P 1'
_space_group_name_Hall 'P 1'
loop_
    _symmetry_equiv_pos_as_xyz
    x,y,z
loop_
    _atom_site_label
    _atom_site_type_symbol
    _atom_site_fract_x
    _atom_site_fract_y
    _atom_site_fract_z
    _atom_site_occupancy
    Ag0     Ag   0.67554   0.16852   0.75137   1.000
    Ag1     Ag   0.66743   0.32510   0.25070   1.000
    Ag2     Ag   0.83115   0.17422   0.25102   1.000
    Ag3     Ag   0.17416   0.66704   0.24952   1.000
    Ag4     Ag   0.32442   0.83145   0.24857   1.000
    Ag5     Ag   0.33249   0.67483   0.74925   1.000
    Ag6     Ag   0.16885   0.82578   0.74897   1.000
    Ag7     Ag   0.82580   0.33292   0.75044   1.000
    C8      C    0.12065   0.62050   0.86075   1.000
    C9      C    0.38060   0.88009   0.86016   1.000
    C10     C    0.37898   0.61928   0.36046   1.000
    C11     C    0.11928   0.87909   0.36030   1.000
    C12     C    0.87930   0.37948   0.13922   1.000
    C13     C    0.61940   0.11985   0.13978   1.000
    C14     C    0.62101   0.38073   0.63951   1.000
    C15     C    0.88072   0.12091   0.63958   1.000
    S16     S    0.98140   0.46353   0.76886   1.000
    S17     S    0.14891   0.67901   0.06658   1.000
    S18     S    0.52040   0.03715   0.76896   1.000
    S19     S    0.35079   0.82050   0.06560   1.000
    S20     S    0.53692   0.48087   0.26890   1.000
    S21     S    0.32050   0.64870   0.56626   1.000
    S22     S    0.96214   0.01871   0.26904   1.000
    S23     S    0.17923   0.85081   0.56580   1.000
    S24     S    0.01853   0.53646   0.23111   1.000
    S25     S    0.85102   0.32096   0.93338   1.000
    S26     S    0.47960   0.96277   0.23101   1.000
    S27     S    0.64925   0.17942   0.93435   1.000
    S28     S    0.46303   0.51909   0.73106   1.000
    S29     S    0.67947   0.35126   0.43370   1.000
    S30     S    0.03786   0.98129   0.73094   1.000
    S31     S    0.82076   0.14917   0.43418   1.000
    O32     O    0.08403   0.70656   0.83764   1.000
    O33     O    0.20388   0.58065   0.83420   1.000
    O34     O    0.41767   0.79426   0.83710   1.000
    O35     O    0.29753   0.91998   0.83334   1.000
    O36     O    0.29330   0.58198   0.33763   1.000
    O37     O    0.41831   0.70268   0.33349   1.000
    O38     O    0.20506   0.91598   0.33705   1.000
    O39     O    0.07956   0.79581   0.33388   1.000
    O40     O    0.91596   0.29343   0.16233   1.000
    O41     O    0.79606   0.41928   0.16573   1.000
    O42     O    0.58229   0.20566   0.16285   1.000
    O43     O    0.70248   0.08000   0.16662   1.000
    O44     O    0.70669   0.41803   0.66233   1.000
    O45     O    0.58169   0.29733   0.66647   1.000
    O46     O    0.79494   0.08403   0.66291   1.000
    O47     O    0.92044   0.20420   0.66607   1.000
loop_
    _geom_bond_atom_site_label_1
    _geom_bond_atom_site_label_2
    _geom_bond_distance
    _geom_bond_site_symmetry_2
    _ccdc_geom_bond_type
    S19    Ag4       2.52713      .   S
    S17    Ag3       2.52600      .   S
    C12    O40       1.26755      .   S
    C12    O41       1.26515      .   S
    C13    O42       1.26736      .   S
    C13    O43       1.26519      .   S
    O40    Ag2       2.26982      .   S
    O42    Ag1       2.27126      .   S
    O41    Ag1       2.39308      .   S
    O43    Ag2       2.39320      .   S
    S26    Ag4       2.68103      .   S
    S24    Ag3       2.68129      .   S
    Ag4    Ag3       2.92568      .   S
    Ag4    O37       2.39237      .   S
    Ag4    O38       2.26961      .   S
    Ag3    O39       2.39399      .   S
    Ag3    O36       2.26891      .   S
    Ag1    Ag2       2.92431      .   S
    Ag1    S20       2.68024      .   S
    Ag1    S29       2.52879      .   S
    Ag2    S22       2.68147      .   S
    Ag2    S31       2.52664      .   S
    O37    C10       1.26492      .   S
    O39    C11       1.26468      .   S
    O38    C11       1.26714      .   S
    O36    C10       1.26755      .   S
    S23    Ag6       2.52674      .   S
    S21    Ag5       2.52855      .   S
    C14    O44       1.26754      .   S
    C14    O45       1.26490      .   S
    C15    O46       1.26740      .   S
    C15    O47       1.26500      .   S
    O44    Ag7       2.26897      .   S
    O46    Ag0       2.26957      .   S
    O47    Ag7       2.39395      .   S
    O45    Ag0       2.39232      .   S
    S30    Ag6       2.68135      .   S
    S28    Ag5       2.68021      .   S
    Ag6    Ag5       2.92423      .   S
    Ag6    O35       2.39310      .   S
    Ag6    O32       2.26977      .   S
    Ag5    O33       2.39279      .   S
    Ag5    O34       2.27139      .   S
    Ag7    Ag0       2.92558      .   S
    Ag7    S16       2.68122      .   S
    Ag7    S25       2.52592      .   S
    Ag0    S18       2.68117      .   S
    Ag0    S27       2.52711      .   S
    O35    C9        1.26518      .   S
    O33    C8        1.26536      .   S
    O34    C9        1.26734      .   S
    O32    C8        1.26755      .   S
