# CIF file generated by openbabel 2.4.90, see http://openbabel.sf.net
data_I
_chemical_name_common ''
_cell_length_a 13.144
_cell_length_b 13.126
_cell_length_c 13.66
_cell_angle_alpha 89.933
_cell_angle_beta 89.933
_cell_angle_gamma 89.989
_space_group_name_H-M_alt 'P 1'
_space_group_name_Hall 'P 1'
loop_
    _symmetry_equiv_pos_as_xyz
    x,y,z
loop_
    _atom_site_label
    _atom_site_type_symbol
    _atom_site_fract_x
    _atom_site_fract_y
    _atom_site_fract_z
    _atom_site_occupancy
    C0      C    0.12065   0.62050   0.86075   1.000
    C1      C    0.38060   0.88009   0.86016   1.000
    C2      C    0.37898   0.61928   0.36046   1.000
    C3      C    0.11928   0.87909   0.36030   1.000
    C4      C    0.87930   0.37948   0.13922   1.000
    C5      C    0.61940   0.11985   0.13978   1.000
    C6      C    0.62101   0.38073   0.63951   1.000
    C7      C    0.88072   0.12091   0.63958   1.000
