# CIF file generated by openbabel 2.4.90, see http://openbabel.sf.net
data_I
_chemical_name_common ''
_cell_length_a 13.144
_cell_length_b 13.126
_cell_length_c 13.66
_cell_angle_alpha 89.933
_cell_angle_beta 89.933
_cell_angle_gamma 89.989
_space_group_name_H-M_alt 'P 1'
_space_group_name_Hall 'P 1'
loop_
    _symmetry_equiv_pos_as_xyz
    x,y,z
loop_
    _atom_site_label
    _atom_site_type_symbol
    _atom_site_fract_x
    _atom_site_fract_y
    _atom_site_fract_z
    _atom_site_occupancy
    Zr0     Zr   0.82580   0.33292   0.75044   1.000
    Zr1     Zr   0.67554   0.16852   0.75137   1.000
    Zr2     Zr   0.66743   0.32510   0.25070   1.000
    Zr3     Zr   0.83115   0.17422   0.25102   1.000
    Zr4     Zr   0.17416   0.66704   0.24952   1.000
    Zr5     Zr   0.32442   0.83145   0.24857   1.000
    Zr6     Zr   0.33249   0.67483   0.74925   1.000
    Zr7     Zr   0.16885   0.82578   0.74897   1.000
    Zr8     Zr   0.12065   0.62050   0.86075   1.000
    Zr9     Zr   0.38060   0.88009   0.86016   1.000
    Zr10    Zr   0.37898   0.61928   0.36046   1.000
    Zr11    Zr   0.11928   0.87909   0.36030   1.000
    Zr12    Zr   0.87930   0.37948   0.13922   1.000
    Zr13    Zr   0.61940   0.11985   0.13978   1.000
    Zr14    Zr   0.62101   0.38073   0.63951   1.000
    Zr15    Zr   0.88072   0.12091   0.63958   1.000
    Zr16    Zr   0.98140   0.46353   0.76886   1.000
    Zr17    Zr   0.14891   0.67901   0.06658   1.000
    Zr18    Zr   0.52040   0.03715   0.76896   1.000
    Zr19    Zr   0.35079   0.82050   0.06560   1.000
    Zr20    Zr   0.53692   0.48087   0.26890   1.000
    Zr21    Zr   0.32050   0.64870   0.56626   1.000
    Zr22    Zr   0.96214   0.01871   0.26904   1.000
    Zr23    Zr   0.17923   0.85081   0.56580   1.000
    Zr24    Zr   0.01853   0.53646   0.23111   1.000
    Zr25    Zr   0.85102   0.32096   0.93338   1.000
    Zr26    Zr   0.47960   0.96277   0.23101   1.000
    Zr27    Zr   0.64925   0.17942   0.93435   1.000
    Zr28    Zr   0.46303   0.51909   0.73106   1.000
    Zr29    Zr   0.67947   0.35126   0.43370   1.000
    Zr30    Zr   0.03786   0.98129   0.73094   1.000
    Zr31    Zr   0.82076   0.14917   0.43418   1.000
    Zr32    Zr   0.08403   0.70656   0.83764   1.000
    Zr33    Zr   0.20388   0.58065   0.83420   1.000
    Zr34    Zr   0.41767   0.79426   0.83710   1.000
    Zr35    Zr   0.29753   0.91998   0.83334   1.000
    Zr36    Zr   0.29330   0.58198   0.33763   1.000
    Zr37    Zr   0.41831   0.70268   0.33349   1.000
    Zr38    Zr   0.20506   0.91598   0.33705   1.000
    Zr39    Zr   0.07956   0.79581   0.33388   1.000
    Zr40    Zr   0.91596   0.29343   0.16233   1.000
    Zr41    Zr   0.79606   0.41928   0.16573   1.000
    Zr42    Zr   0.58229   0.20566   0.16285   1.000
    Zr43    Zr   0.70248   0.08000   0.16662   1.000
    Zr44    Zr   0.70669   0.41803   0.66233   1.000
    Zr45    Zr   0.58169   0.29733   0.66647   1.000
    Zr46    Zr   0.79494   0.08403   0.66291   1.000
    Zr47    Zr   0.92044   0.20420   0.66607   1.000
    O48     O    0.33761   0.82597   0.15708   1.000
    O49     O    0.16154   0.67303   0.15805   1.000
    O50     O    0.89763   0.33646   0.15077   1.000
    O51     O    0.83768   0.39938   0.15247   1.000
    O52     O    0.60084   0.16275   0.15131   1.000
    O53     O    0.66094   0.09992   0.15320   1.000
    O54     O    0.87355   0.23383   0.20667   1.000
    O55     O    0.62486   0.26538   0.20677   1.000
    O56     O    0.73174   0.37219   0.20821   1.000
    O57     O    0.76681   0.12711   0.20882   1.000
    O58     O    0.40201   0.89711   0.23979   1.000
    O59     O    0.09635   0.60175   0.24031   1.000
    O60     O    0.24929   0.74925   0.24904   1.000
    O61     O    0.37136   0.76706   0.29103   1.000
    O62     O    0.26474   0.87372   0.29281   1.000
    O63     O    0.12686   0.73143   0.29170   1.000
    O64     O    0.23373   0.62451   0.29357   1.000
    O65     O    0.74929   0.24966   0.25086   1.000
    O66     O    0.60217   0.40299   0.25980   1.000
    O67     O    0.67345   0.33818   0.34220   1.000
    O68     O    0.89664   0.09647   0.26003   1.000
    O69     O    0.82595   0.16169   0.34260   1.000
    O70     O    0.39864   0.66098   0.34697   1.000
    O71     O    0.09942   0.83745   0.34709   1.000
    O72     O    0.16217   0.89753   0.34867   1.000
    O73     O    0.33614   0.60063   0.34904   1.000
    O74     O    0.17404   0.83830   0.65738   1.000
    O75     O    0.32650   0.66177   0.65775   1.000
    O76     O    0.66385   0.39938   0.65092   1.000
    O77     O    0.60135   0.33903   0.65299   1.000
    O78     O    0.83783   0.10247   0.65124   1.000
    O79     O    0.90058   0.16255   0.65283   1.000
    O80     O    0.76625   0.37548   0.70638   1.000
    O81     O    0.73524   0.12628   0.70714   1.000
    O82     O    0.87312   0.26856   0.70826   1.000
    O83     O    0.62862   0.23293   0.70892   1.000
    O84     O    0.10335   0.90354   0.73995   1.000
    O85     O    0.39776   0.59696   0.74015   1.000
    O86     O    0.25067   0.75030   0.74911   1.000
    O87     O    0.23319   0.87288   0.79115   1.000
    O88     O    0.12644   0.76617   0.79330   1.000
    O89     O    0.26819   0.62774   0.79172   1.000
    O90     O    0.37508   0.73454   0.79317   1.000
    O91     O    0.75067   0.25072   0.75090   1.000
    O92     O    0.90360   0.39823   0.75965   1.000
    O93     O    0.83841   0.32694   0.84191   1.000
    O94     O    0.59797   0.10284   0.76016   1.000
    O95     O    0.66239   0.17397   0.84286   1.000
    O96     O    0.33906   0.90003   0.84675   1.000
    O97     O    0.16226   0.60058   0.84747   1.000
    O98     O    0.39913   0.83717   0.84863   1.000
    O99     O    0.10234   0.66353   0.84919   1.000
    N100    N    0.13379   0.10450   0.75465   1.000
    O101    O    0.10675   0.06992   0.74779   1.000
    N102    N    0.86622   0.89550   0.24531   1.000
    O103    O    0.89326   0.93008   0.25216   1.000
    N104    N    0.44233   0.69249   0.05064   1.000
    O105    O    0.41691   0.72867   0.05482   1.000
    N106    N    0.36744   0.39552   0.75498   1.000
    O107    O    0.39438   0.43021   0.74808   1.000
    N108    N    1.00000   0.99999   0.49999   1.000
    O109    O    0.01453   0.99319   0.58309   1.000
    O110    O    0.98547   0.00680   0.41689   1.000
    O111    O    0.06440   0.94661   0.52467   1.000
    O112    O    0.93560   0.05337   0.47531   1.000
    O113    O    0.95585   0.04441   0.55190   1.000
    O114    O    0.04415   0.95558   0.44805   1.000
    N115    N    0.99996   0.50000   0.99998   1.000
    O116    O    0.04425   0.54466   0.94820   1.000
    O117    O    0.00674   0.51400   0.08315   1.000
    O118    O    0.05323   0.56433   0.02494   1.000
    O119    O    0.95567   0.45535   0.05176   1.000
    O120    O    0.99317   0.48600   0.91681   1.000
    O121    O    0.94669   0.43565   0.97502   1.000
    N122    N    0.05821   0.80756   0.05098   1.000
    O123    O    0.08339   0.77123   0.05534   1.000
    N124    N    0.49999   0.49999   0.49998   1.000
    O125    O    0.45514   0.54375   0.44810   1.000
    O126    O    0.51413   0.49297   0.41683   1.000
    O127    O    0.43545   0.55316   0.52482   1.000
    O128    O    0.48584   0.50701   0.58313   1.000
    O129    O    0.56452   0.44682   0.47513   1.000
    O130    O    0.54483   0.45623   0.55186   1.000
    N131    N    0.50001   0.99995   0.99998   1.000
    O132    O    0.44661   0.93548   0.02461   1.000
    O133    O    0.55342   0.06444   0.97535   1.000
    O134    O    0.54383   0.04436   0.05196   1.000
    O135    O    0.50744   0.01425   0.91685   1.000
    O136    O    0.49259   0.98565   0.08312   1.000
    O137    O    0.45619   0.95554   0.94799   1.000
    N138    N    0.30720   0.94194   0.54888   1.000
    O139    O    0.27103   0.91664   0.55361   1.000
    N140    N    0.39680   0.13219   0.74365   1.000
    O141    O    0.43150   0.10541   0.75094   1.000
    N142    N    0.94177   0.19245   0.94897   1.000
    O143    O    0.91658   0.22877   0.94462   1.000
    N144    N    0.80752   0.44253   0.44868   1.000
    O145    O    0.77133   0.41719   0.44450   1.000
    N146    N    0.89563   0.63280   0.25491   1.000
    O147    O    0.93013   0.60564   0.24798   1.000
    N148    N    0.69280   0.05803   0.45110   1.000
    O149    O    0.72896   0.08333   0.44637   1.000
    N150    N    0.55766   0.30740   0.94935   1.000
    O151    O    0.58309   0.27122   0.94516   1.000
    N152    N    0.60321   0.86773   0.25632   1.000
    O153    O    0.56851   0.89452   0.24902   1.000
    N154    N    0.10433   0.36724   0.74499   1.000
    O155    O    0.06982   0.39438   0.75188   1.000
    N156    N    0.63254   0.60442   0.24496   1.000
    O157    O    0.60559   0.56974   0.25187   1.000
    N158    N    0.19245   0.55744   0.55124   1.000
    O159    O    0.22864   0.58278   0.55543   1.000
loop_
    _geom_bond_atom_site_label_1
    _geom_bond_atom_site_label_2
    _geom_bond_distance
    _geom_bond_site_symmetry_2
    _ccdc_geom_bond_type
    Zr19   O48       1.26357      .   S
    Zr5    O48       1.26357      .   S
    Zr17   O49       1.26300      .   S
    Zr4    O49       1.26300      .   S
    Zr12   O50       0.63377      .   S
    Zr40   O50       0.63377      .   S
    Zr12   O51       0.63257      .   S
    Zr41   O51       0.63257      .   S
    Zr13   O52       0.63368      .   S
    Zr42   O52       0.63368      .   S
    Zr13   O53       0.63259      .   S
    Zr43   O53       0.63259      .   S
    Zr40   O54       1.13491      .   S
    Zr3    O54       1.13491      .   S
    Zr42   O55       1.13563      .   S
    Zr2    O55       1.13563      .   S
    Zr41   O56       1.19654      .   S
    Zr2    O56       1.19654      .   S
    Zr43   O57       1.19660      .   S
    Zr3    O57       1.19660      .   S
    Zr26   O58       1.34052      .   S
    Zr5    O58       1.34052      .   S
    Zr24   O59       1.34065      .   S
    Zr4    O59       1.34065      .   S
    Zr5    O60       1.46284      .   S
    Zr4    O60       1.46284      .   S
    Zr5    O61       1.19619      .   S
    Zr37   O61       1.19619      .   S
    Zr5    O62       1.13481      .   S
    Zr38   O62       1.13481      .   S
    Zr4    O63       1.19700      .   S
    Zr39   O63       1.19700      .   S
    Zr4    O64       1.13446      .   S
    Zr36   O64       1.13446      .   S
    Zr2    O65       1.46216      .   S
    Zr3    O65       1.46216      .   S
    Zr2    O66       1.34012      .   S
    Zr20   O66       1.34012      .   S
    Zr2    O67       1.26440      .   S
    Zr29   O67       1.26440      .   S
    Zr3    O68       1.34074      .   S
    Zr22   O68       1.34074      .   S
    Zr3    O69       1.26332      .   S
    Zr31   O69       1.26332      .   S
    Zr37   O70       0.63246      .   S
    Zr10   O70       0.63246      .   S
    Zr39   O71       0.63234      .   S
    Zr11   O71       0.63234      .   S
    Zr38   O72       0.63357      .   S
    Zr11   O72       0.63357      .   S
    Zr36   O73       0.63377      .   S
    Zr10   O73       0.63377      .   S
    Zr23   O74       1.26337      .   S
    Zr7    O74       1.26337      .   S
    Zr21   O75       1.26428      .   S
    Zr6    O75       1.26428      .   S
    Zr14   O76       0.63377      .   S
    Zr44   O76       0.63377      .   S
    Zr14   O77       0.63245      .   S
    Zr45   O77       0.63245      .   S
    Zr15   O78       0.63370      .   S
    Zr46   O78       0.63370      .   S
    Zr15   O79       0.63250      .   S
    Zr47   O79       0.63250      .   S
    Zr44   O80       1.13448      .   S
    Zr0    O80       1.13448      .   S
    Zr46   O81       1.13478      .   S
    Zr1    O81       1.13478      .   S
    Zr47   O82       1.19697      .   S
    Zr0    O82       1.19697      .   S
    Zr45   O83       1.19616      .   S
    Zr1    O83       1.19616      .   S
    Zr30   O84       1.34068      .   S
    Zr7    O84       1.34068      .   S
    Zr28   O85       1.34011      .   S
    Zr6    O85       1.34011      .   S
    Zr7    O86       1.46211      .   S
    Zr6    O86       1.46211      .   S
    Zr7    O87       1.19655      .   S
    Zr35   O87       1.19655      .   S
    Zr7    O88       1.13488      .   S
    Zr32   O88       1.13488      .   S
    Zr6    O89       1.19639      .   S
    Zr33   O89       1.19639      .   S
    Zr6    O90       1.13569      .   S
    Zr34   O90       1.13569      .   S
    Zr0    O91       1.46279      .   S
    Zr1    O91       1.46279      .   S
    Zr0    O92       1.34061      .   S
    Zr16   O92       1.34061      .   S
    Zr0    O93       1.26296      .   S
    Zr25   O93       1.26296      .   S
    Zr1    O94       1.34059      .   S
    Zr18   O94       1.34059      .   S
    Zr1    O95       1.26355      .   S
    Zr27   O95       1.26355      .   S
    Zr35   O96       0.63259      .   S
    Zr9    O96       0.63259      .   S
    Zr33   O97       0.63268      .   S
    Zr8    O97       0.63268      .   S
    Zr34   O98       0.63367      .   S
    Zr9    O98       0.63367      .   S
    Zr32   O99       0.63377      .   S
    Zr8    O99       0.63377      .   S
    N100   O101      0.58428      .   S
    Zr30   O101      1.49253  1_565   S
    N102   O103      0.58428      .   S
    Zr22   O103      1.49253  1_545   S
    N104   O105      0.58342      .   S
    Zr19   O105      1.49315      .   S
    N106   O107      0.58437      .   S
    Zr28   O107      1.49284      .   S
    N108   O109      1.15470  1_655   S
    Zr30   O109      2.04892      .   S
    N108   O110      1.15467  1_565   S
    Zr22   O110      2.04890      .   S
    N108   O111      1.14935  1_655   S
    Zr23   O111      2.04322      .   S
    N108   O112      1.14936  1_565   S
    Zr31   O112      2.04323      .   S
    N108   O113      1.08597  1_565   S
    Zr15   O113      1.84870      .   S
    N108   O114      1.08619  1_655   S
    Zr11   O114      1.84928      .   S
    N115   O116      1.08672  1_655   S
    Zr8    O116      1.84975      .   S
    N115   O117      1.15465  1_656   S
    Zr24   O117      2.04887      .   S
    N115   O118      1.14940  1_656   S
    Zr17   O118      2.04334      .   S
    N115   O119      1.08666  1_556   S
    Zr12   O119      1.84969      .   S
    N115   O120      1.15460      .   S
    Zr16   O120      2.04882      .   S
    N115   O121      1.14948      .   S
    Zr25   O121      2.04342      .   S
    N122   O123      0.58349      .   S
    Zr17   O123      1.49324      .   S
    N124   O125      1.08605      .   S
    Zr10   O125      1.84868      .   S
    N124   O126      1.15453      .   S
    Zr20   O126      2.04874      .   S
    N124   O127      1.14949      .   S
    Zr21   O127      2.04332      .   S
    N124   O128      1.15458      .   S
    Zr28   O128      2.04880      .   S
    N124   O129      1.14951      .   S
    Zr29   O129      2.04333      .   S
    N124   O130      1.08606      .   S
    Zr14   O130      1.84873      .   S
    N131   O132      1.14942  1_556   S
    Zr19   O132      2.04322      .   S
    N131   O133      1.14951  1_565   S
    Zr27   O133      2.04332      .   S
    N131   O134      1.08524  1_566   S
    Zr13   O134      1.84751      .   S
    N131   O135      1.15478  1_565   S
    Zr18   O135      2.04892      .   S
    N131   O136      1.15489  1_556   S
    Zr26   O136      2.04903      .   S
    N131   O137      1.08536      .   S
    Zr9    O137      1.84757      .   S
    N138   O139      0.58343      .   S
    Zr23   O139      1.49324      .   S
    N140   O141      0.58433      .   S
    Zr18   O141      1.49281      .   S
    N142   O143      0.58351      .   S
    Zr25   O143      1.49328      .   S
    N144   O145      0.58344      .   S
    Zr29   O145      1.49317      .   S
    N146   O147      0.58439      .   S
    Zr24   O147      1.49241  1_455   S
    N148   O149      0.58342      .   S
    Zr31   O149      1.49324      .   S
    N150   O151      0.58345      .   S
    Zr27   O151      1.49318      .   S
    N152   O153      0.58438      .   S
    Zr26   O153      1.49280      .   S
    N154   O155      0.58430      .   S
    Zr16   O155      1.49263  1_655   S
    N156   O157      0.58439      .   S
    Zr20   O157      1.49285      .   S
    N158   O159      0.58342      .   S
    Zr21   O159      1.49314      .   S
