# CIF file generated by openbabel 2.4.90, see http://openbabel.sf.net
data_I
_chemical_name_common ''
_cell_length_a 13.144
_cell_length_b 13.126
_cell_length_c 13.66
_cell_angle_alpha 89.933
_cell_angle_beta 89.933
_cell_angle_gamma 89.989
_space_group_name_H-M_alt 'P 1'
_space_group_name_Hall 'P 1'
loop_
    _symmetry_equiv_pos_as_xyz
    x,y,z
loop_
    _atom_site_label
    _atom_site_type_symbol
    _atom_site_fract_x
    _atom_site_fract_y
    _atom_site_fract_z
    _atom_site_occupancy
    N0      N    0.13379   0.10450   0.75465   1.000
    N1      N    0.86622   0.89550   0.24531   1.000
    N2      N    0.44233   0.69249   0.05064   1.000
    N3      N    0.36744   0.39552   0.75498   1.000
    N4      N    1.00000   0.99999   0.49999   1.000
    N5      N    0.99996   0.50000   0.99998   1.000
    N6      N    0.05821   0.80756   0.05098   1.000
    N7      N    0.49999   0.49999   0.49998   1.000
    N8      N    0.50001   0.99995   0.99998   1.000
    N9      N    0.30720   0.94194   0.54888   1.000
    N10     N    0.39680   0.13219   0.74365   1.000
    N11     N    0.94177   0.19245   0.94897   1.000
    N12     N    0.80752   0.44253   0.44868   1.000
    N13     N    0.89563   0.63280   0.25491   1.000
    N14     N    0.69280   0.05803   0.45110   1.000
    N15     N    0.55766   0.30740   0.94935   1.000
    N16     N    0.60321   0.86773   0.25632   1.000
    N17     N    0.10433   0.36724   0.74499   1.000
    N18     N    0.63254   0.60442   0.24496   1.000
    N19     N    0.19245   0.55744   0.55124   1.000
    Zr20    Zr   0.24924   0.74934   0.26293   1.000
    O21     O    0.08969   0.67749   0.25546   1.000
    O22     O    0.12799   0.63167   0.17304   1.000
    O23     O    0.35219   0.64655   0.35552   1.000
    O24     O    0.15124   0.65684   0.14394   1.000
    O25     O    0.16632   0.76028   0.15914   1.000
    O26     O    0.40888   0.82193   0.25598   1.000
    O27     O    0.37092   0.86749   0.17302   1.000
    O28     O    0.33308   0.73900   0.15887   1.000
    O29     O    0.34793   0.84241   0.14377   1.000
    O30     O    0.14670   0.85246   0.35549   1.000
    Zr31    Zr   0.25053   0.75021   0.76296   1.000
    O32     O    0.35336   0.85288   0.85547   1.000
    O33     O    0.32245   0.59021   0.75552   1.000
    O34     O    0.36818   0.62861   0.67304   1.000
    O35     O    0.14739   0.64743   0.85558   1.000
    O36     O    0.23959   0.66650   0.65919   1.000
    O37     O    0.34299   0.65169   0.64389   1.000
    O38     O    0.26078   0.83343   0.65828   1.000
    O39     O    0.15746   0.84841   0.64381   1.000
    O40     O    0.13253   0.87170   0.67302   1.000
    O41     O    0.17864   0.91006   0.75538   1.000
    Zr42    Zr   0.75074   0.25065   0.73702   1.000
    O43     O    0.85329   0.14753   0.64446   1.000
    O44     O    0.64779   0.35344   0.64444   1.000
    O45     O    0.91028   0.32251   0.74445   1.000
    O46     O    0.87196   0.36832   0.82692   1.000
    O47     O    0.59112   0.17803   0.74398   1.000
    O48     O    0.62909   0.13245   0.82693   1.000
    O49     O    0.83366   0.23971   0.84082   1.000
    O50     O    0.84872   0.34315   0.85602   1.000
    O51     O    0.66692   0.26093   0.84109   1.000
    O52     O    0.65208   0.15754   0.85618   1.000
    Zr53    Zr   0.74944   0.24975   0.23701   1.000
    O54     O    0.85256   0.35255   0.14438   1.000
    O55     O    0.64664   0.14706   0.14448   1.000
    O56     O    0.73920   0.16654   0.34169   1.000
    O57     O    0.84252   0.15156   0.35616   1.000
    O58     O    0.76038   0.33347   0.34075   1.000
    O59     O    0.65698   0.34829   0.35607   1.000
    O60     O    0.67752   0.40974   0.24444   1.000
    O61     O    0.63179   0.37136   0.32692   1.000
    O62     O    0.86746   0.12828   0.32695   1.000
    O63     O    0.82135   0.08992   0.24458   1.000
loop_
    _geom_bond_atom_site_label_1
    _geom_bond_atom_site_label_2
    _geom_bond_distance
    _geom_bond_site_symmetry_2
    _ccdc_geom_bond_type
    Zr20   O21       2.30207      .   S
    N13    O21       2.61734  1_655   S
    Zr20   O22       2.53834      .   S
    N5     O22       3.38049  1_656   S
    Zr20   O23       2.29134      .   S
    N7     O23       3.37149      .   S
    Zr20   O24       2.40540      .   S
    N5     O24       3.47546  1_656   S
    Zr20   O25       1.79500      .   S
    N6     O25       2.14224      .   S
    Zr20   O26       2.30643      .   S
    N16    O26       2.62421      .   S
    Zr20   O27       2.54231      .   S
    N8     O27       3.38704  1_556   S
    Zr20   O28       1.80272      .   S
    N2     O28       2.14886      .   S
    Zr20   O29       2.41154      .   S
    N8     O29       3.48046  1_556   S
    Zr20   O30       2.29060      .   S
    N4     O30       3.37085  1_655   S
    Zr31   O32       2.29098      .   S
    N8     O32       3.37021      .   S
    Zr31   O33       2.30529      .   S
    N3     O33       2.62292      .   S
    Zr31   O34       2.53907      .   S
    N7     O34       3.38218      .   S
    Zr31   O35       2.29159      .   S
    N5     O35       3.37265  1_655   S
    Zr31   O36       1.80038      .   S
    N19    O36       2.14824      .   S
    Zr31   O37       2.40721      .   S
    N7     O37       3.47642      .   S
    Zr31   O38       1.80323      .   S
    N9     O38       2.15119      .   S
    Zr31   O39       2.40949      .   S
    N4     O39       3.47865  1_655   S
    Zr31   O40       2.54096      .   S
    N4     O40       3.38473  1_655   S
    Zr31   O41       2.30328      .   S
    N0     O41       2.61931  1_545   S
    Zr42   O43       2.29064      .   S
    N4     O43       3.37069  1_565   S
    Zr42   O44       2.29138      .   S
    N7     O44       3.37153      .   S
    Zr42   O45       2.30198      .   S
    N17    O45       2.61736  1_455   S
    Zr42   O46       2.53818      .   S
    N5     O46       3.38033      .   S
    Zr42   O47       2.30643      .   S
    N10    O47       2.62409      .   S
    Zr42   O48       2.54249      .   S
    N8     O48       3.38712  1_565   S
    Zr42   O49       1.79498      .   S
    N11    O49       2.14223      .   S
    Zr42   O50       2.40523      .   S
    N5     O50       3.47534      .   S
    Zr42   O51       1.80276      .   S
    N15    O51       2.14893      .   S
    Zr42   O52       2.41162      .   S
    N8     O52       3.48063  1_565   S
    Zr53   O54       2.29151      .   S
    N5     O54       3.37251  1_556   S
    Zr53   O55       2.29110      .   S
    N8     O55       3.37021  1_566   S
    Zr53   O56       1.80330      .   S
    N14    O56       2.15119      .   S
    Zr53   O57       2.40958      .   S
    N4     O57       3.47873  1_565   S
    Zr53   O58       1.80023      .   S
    N12    O58       2.14802      .   S
    Zr53   O59       2.40722      .   S
    N7     O59       3.47645      .   S
    Zr53   O60       2.30517      .   S
    N18    O60       2.62270      .   S
    Zr53   O61       2.53912      .   S
    N7     O61       3.38217      .   S
    Zr53   O62       2.54102      .   S
    N4     O62       3.38481  1_565   S
    Zr53   O63       2.30316      .   S
    N1     O63       2.61912  1_565   S
