# CIF file generated by openbabel 2.4.90, see http://openbabel.sf.net
data_I
_chemical_name_common ''
_cell_length_a 20.636
_cell_length_b 15.499
_cell_length_c 23.722
_cell_angle_alpha 89.798
_cell_angle_beta 89.984
_cell_angle_gamma 90.015
_space_group_name_H-M_alt 'P 1'
_space_group_name_Hall 'P 1'
loop_
    _symmetry_equiv_pos_as_xyz
    x,y,z
loop_
    _atom_site_label
    _atom_site_type_symbol
    _atom_site_fract_x
    _atom_site_fract_y
    _atom_site_fract_z
    _atom_site_occupancy
    H0      H    0.01440   0.10892   0.82200   1.000
    H1      H    0.51442   0.10892   0.82200   1.000
    H2      H    0.99863   0.05647   0.72412   1.000
    H3      H    0.49865   0.05647   0.72412   1.000
    H4      H    0.21575   0.03780   0.81630   1.000
    H5      H    0.71576   0.03780   0.81630   1.000
    H6      H    0.04409   0.98903   0.63736   1.000
    H7      H    0.54410   0.98904   0.63736   1.000
    H8      H    0.24573   0.92147   0.63021   1.000
    H9      H    0.74575   0.92147   0.63020   1.000
    H10     H    0.26155   0.97353   0.72867   1.000
    H11     H    0.76156   0.97353   0.72867   1.000
    H12     H    0.35046   0.07355   0.98120   1.000
    H13     H    0.85047   0.07355   0.98120   1.000
    H14     H    0.29354   0.25911   0.89249   1.000
    H15     H    0.79355   0.25911   0.89249   1.000
    H16     H    0.29140   0.25559   0.78807   1.000
    H17     H    0.79141   0.25559   0.78807   1.000
    H18     H    0.33840   0.13040   0.73666   1.000
    H19     H    0.83841   0.13041   0.73666   1.000
    H20     H    0.38844   0.00914   0.79096   1.000
    H21     H    0.88845   0.00914   0.79096   1.000
    H22     H    0.39137   0.01389   0.89541   1.000
    H23     H    0.89138   0.01389   0.89541   1.000
    H24     H    0.23693   0.89379   0.32365   1.000
    H25     H    0.73694   0.89379   0.32365   1.000
    H26     H    0.25314   0.94528   0.22517   1.000
    H27     H    0.75315   0.94528   0.22517   1.000
    H28     H    0.03556   0.96456   0.31652   1.000
    H29     H    0.53557   0.96456   0.31652   1.000
    H30     H    0.20813   0.01186   0.13772   1.000
    H31     H    0.70814   0.01186   0.13772   1.000
    H32     H    0.00640   0.07870   0.12920   1.000
    H33     H    0.50641   0.07870   0.12921   1.000
    H34     H    0.49012   0.02767   0.22804   1.000
    H35     H    0.99013   0.02767   0.22804   1.000
    H36     H    0.40195   0.92649   0.48054   1.000
    H37     H    0.90196   0.92649   0.48054   1.000
    H38     H    0.45916   0.74197   0.39205   1.000
    H39     H    0.95917   0.74196   0.39205   1.000
    H40     H    0.46098   0.74604   0.28760   1.000
    H41     H    0.96100   0.74603   0.28761   1.000
    H42     H    0.41337   0.87118   0.23603   1.000
    H43     H    0.91338   0.87118   0.23603   1.000
    H44     H    0.36304   0.99185   0.29018   1.000
    H45     H    0.86305   0.99185   0.29018   1.000
    H46     H    0.36047   0.98653   0.39466   1.000
    H47     H    0.86049   0.98653   0.39466   1.000
    H48     H    0.48692   0.60620   0.67630   1.000
    H49     H    0.98694   0.60619   0.67630   1.000
    H50     H    0.50314   0.55474   0.77477   1.000
    H51     H    0.00000   0.55473   0.77477   1.000
    H52     H    0.28554   0.53537   0.68356   1.000
    H53     H    0.78555   0.53538   0.68356   1.000
    H54     H    0.45813   0.48818   0.86226   1.000
    H55     H    0.95814   0.48818   0.86226   1.000
    H56     H    0.25639   0.42128   0.87090   1.000
    H57     H    0.75640   0.42129   0.87091   1.000
    H58     H    0.24009   0.47226   0.77207   1.000
    H59     H    0.74010   0.47226   0.77207   1.000
    H60     H    0.15188   0.57352   0.51951   1.000
    H61     H    0.65189   0.57352   0.51951   1.000
    H62     H    0.20911   0.75809   0.60797   1.000
    H63     H    0.70912   0.75809   0.60797   1.000
    H64     H    0.21096   0.75401   0.71241   1.000
    H65     H    0.71097   0.75401   0.71241   1.000
    H66     H    0.16337   0.62881   0.76400   1.000
    H67     H    0.66338   0.62881   0.76400   1.000
    H68     H    0.11303   0.50811   0.70980   1.000
    H69     H    0.61304   0.50811   0.70988   1.000
    H70     H    0.11044   0.51345   0.60540   1.000
    H71     H    0.61045   0.51345   0.60540   1.000
    H72     H    0.26439   0.39106   0.17787   1.000
    H73     H    0.76441   0.39106   0.17787   1.000
    H74     H    0.24862   0.44350   0.27595   1.000
    H75     H    0.74863   0.44351   0.27595   1.000
    H76     H    0.46576   0.46220   0.18371   1.000
    H77     H    0.96578   0.46219   0.18371   1.000
    H78     H    0.29408   0.51092   0.36271   1.000
    H79     H    0.79409   0.51092   0.36271   1.000
    H80     H    0.49575   0.57852   0.36978   1.000
    H81     H    0.99576   0.57851   0.36979   1.000
    H82     H    0.01155   0.52646   0.27133   1.000
    H83     H    0.51156   0.52647   0.27132   1.000
    C84     C    0.95561   0.55044   0.75484   1.000
    C85     C    0.40305   0.51543   0.78621   1.000
    C86     C    0.90306   0.51542   0.78621   1.000
    C87     C    0.34027   0.51001   0.76010   1.000
    H88     H    0.10051   0.42645   0.01881   1.000
    H89     H    0.60053   0.42645   0.01881   1.000
    H90     H    0.04351   0.24087   0.10753   1.000
    H91     H    0.54352   0.24087   0.10753   1.000
    H92     H    0.04138   0.24435   0.21195   1.000
    H93     H    0.54139   0.24436   0.21195   1.000
    H94     H    0.08840   0.36955   0.26335   1.000
    H95     H    0.58841   0.36955   0.26335   1.000
    H96     H    0.13844   0.49086   0.20904   1.000
    H97     H    0.63845   0.49087   0.20904   1.000
    H98     H    0.14136   0.48614   0.10459   1.000
    H99     H    0.64137   0.48614   0.10459   1.000
    C100    C    0.11631   0.07555   0.82467   1.000
    C101    C    0.61632   0.07555   0.82467   1.000
    C102    C    0.05452   0.08147   0.79844   1.000
    C103    C    0.55453   0.08147   0.79844   1.000
    C104    C    0.04608   0.05240   0.74420   1.000
    C105    C    0.54610   0.05240   0.74420   1.000
    C106    C    0.09875   0.01698   0.71340   1.000
    C107    C    0.59877   0.01698   0.71340   1.000
    C108    C    0.16138   0.01172   0.73973   1.000
    C109    C    0.66139   0.01172   0.73973   1.000
    C110    C    0.16858   0.04121   0.79576   1.000
    C111    C    0.66859   0.04121   0.79576   1.000
    C112    C    0.09141   0.98642   0.65768   1.000
    C113    C    0.59142   0.98642   0.65768   1.000
    C114    C    0.09605   0.35970   0.03504   1.000
    C115    C    0.59606   0.35970   0.03500   1.000
    C116    C    0.09255   0.36322   0.09921   1.000
    C117    C    0.14348   0.95234   0.62839   1.000
    C118    C    0.64349   0.95234   0.62839   1.000
    C119    C    0.20554   0.94812   0.65426   1.000
    C120    C    0.70555   0.94812   0.65426   1.000
    C121    C    0.21408   0.97692   0.70855   1.000
    C122    C    0.71409   0.97692   0.70855   1.000
    C123    C    0.34604   0.14030   0.96497   1.000
    C124    C    0.84605   0.14030   0.96497   1.000
    C125    C    0.34256   0.13678   0.90080   1.000
    C126    C    0.84257   0.13678   0.90080   1.000
    C127    C    0.31443   0.20446   0.87020   1.000
    C128    C    0.81445   0.20446   0.87020   1.000
    C129    C    0.31308   0.20217   0.81139   1.000
    C130    C    0.81309   0.20217   0.81139   1.000
    C131    C    0.33974   0.13216   0.78261   1.000
    C132    C    0.83975   0.13216   0.78260   1.000
    C133    C    0.36762   0.06424   0.81299   1.000
    C134    C    0.86763   0.06425   0.81299   1.000
    C135    C    0.36907   0.06663   0.87182   1.000
    C136    C    0.86909   0.06663   0.87182   1.000
    C137    C    0.13503   0.92719   0.32556   1.000
    C138    C    0.63505   0.92718   0.32550   1.000
    C139    C    0.19693   0.92104   0.29950   1.000
    C140    C    0.69694   0.92104   0.29950   1.000
    C141    C    0.20560   0.94955   0.24513   1.000
    C142    C    0.70561   0.94954   0.24513   1.000
    C143    C    0.15305   0.98456   0.21379   1.000
    C144    C    0.65306   0.98456   0.21379   1.000
    C145    C    0.09028   0.98994   0.23988   1.000
    C146    C    0.59030   0.98994   0.23988   1.000
    C147    C    0.08284   0.96108   0.29618   1.000
    C148    C    0.58286   0.96107   0.29618   1.000
    C149    C    0.16068   0.01454   0.15782   1.000
    C150    C    0.66069   0.01454   0.15782   1.000
    C151    C    0.10872   0.04814   0.12801   1.000
    C152    C    0.60874   0.04814   0.12801   1.000
    C153    C    0.04651   0.05243   0.15364   1.000
    C154    C    0.54653   0.05243   0.15364   1.000
    C155    C    0.03771   0.02422   0.20816   1.000
    C156    C    0.53772   0.02422   0.20816   1.000
    C157    C    0.40631   0.85992   0.46400   1.000
    C158    C    0.90633   0.85992   0.46430   1.000
    C159    C    0.40975   0.86395   0.40015   1.000
    C160    C    0.90977   0.86395   0.40015   1.000
    C161    C    0.43803   0.79660   0.36967   1.000
    C162    C    0.93805   0.79659   0.36967   1.000
    C163    C    0.43918   0.79919   0.31085   1.000
    C164    C    0.93920   0.79919   0.31086   1.000
    C165    C    0.41218   0.86919   0.28198   1.000
    C166    C    0.91220   0.86918   0.28198   1.000
    C167    C    0.38414   0.93676   0.31227   1.000
    C168    C    0.88415   0.93676   0.31220   1.000
    C169    C    0.38289   0.93409   0.37111   1.000
    C170    C    0.88291   0.93408   0.37111   1.000
    C171    C    0.38502   0.57278   0.67444   1.000
    C172    C    0.88503   0.57278   0.67445   1.000
    C173    C    0.44692   0.57895   0.70040   1.000
    C174    C    0.94693   0.57894   0.70042   1.000
    C175    C    0.45559   0.55045   0.75484   1.000
    C176    C    0.84029   0.51001   0.76017   1.000
    C177    C    0.33283   0.53887   0.70380   1.000
    C178    C    0.83284   0.53887   0.70387   1.000
    C179    C    0.41068   0.48548   0.84219   1.000
    C180    C    0.91069   0.48548   0.84219   1.000
    C181    C    0.35872   0.45187   0.87203   1.000
    C182    C    0.85874   0.45187   0.87200   1.000
    C183    C    0.29651   0.44755   0.84640   1.000
    C184    C    0.79652   0.44755   0.84645   1.000
    C185    C    0.28770   0.47574   0.79192   1.000
    C186    C    0.78771   0.47574   0.79192   1.000
    C187    C    0.15627   0.64010   0.53574   1.000
    C188    C    0.65628   0.64010   0.53574   1.000
    C189    C    0.15970   0.63607   0.59988   1.000
    C190    C    0.65971   0.63607   0.59980   1.000
    C191    C    0.18799   0.70344   0.63035   1.000
    C192    C    0.68800   0.70344   0.63036   1.000
    C193    C    0.18916   0.70083   0.68916   1.000
    C194    C    0.68917   0.70083   0.68917   1.000
    C195    C    0.16217   0.63081   0.71805   1.000
    C196    C    0.66218   0.63081   0.71806   1.000
    C197    C    0.13412   0.56322   0.68770   1.000
    C198    C    0.63413   0.56322   0.68778   1.000
    C199    C    0.13285   0.56591   0.62894   1.000
    C200    C    0.63286   0.56591   0.62890   1.000
    C201    C    0.36631   0.42445   0.17536   1.000
    C202    C    0.86633   0.42444   0.17536   1.000
    C203    C    0.30452   0.41852   0.20161   1.000
    C204    C    0.80453   0.41852   0.20161   1.000
    C205    C    0.29608   0.44758   0.25580   1.000
    C206    C    0.79609   0.44758   0.25580   1.000
    C207    C    0.34875   0.48300   0.28665   1.000
    C208    C    0.84876   0.48300   0.28665   1.000
    C209    C    0.41139   0.48827   0.26029   1.000
    C210    C    0.91140   0.48826   0.26030   1.000
    C211    C    0.41859   0.45879   0.20426   1.000
    C212    C    0.91860   0.45878   0.20426   1.000
    C213    C    0.34141   0.51354   0.34237   1.000
    C214    C    0.84142   0.51354   0.34237   1.000
    C215    C    0.39349   0.54763   0.37164   1.000
    C216    C    0.89350   0.54763   0.37164   1.000
    C217    C    0.45555   0.55186   0.34575   1.000
    C218    C    0.95556   0.55185   0.34575   1.000
    C219    C    0.46409   0.52307   0.29140   1.000
    C220    C    0.96410   0.52306   0.29146   1.000
    C221    C    0.59256   0.36322   0.09921   1.000
    C222    C    0.06441   0.29552   0.12981   1.000
    C223    C    0.56442   0.29553   0.12981   1.000
    C224    C    0.06306   0.29780   0.18862   1.000
    C225    C    0.56307   0.29780   0.18862   1.000
    C226    C    0.08973   0.36781   0.21740   1.000
    C227    C    0.58974   0.36781   0.21740   1.000
    C228    C    0.11761   0.43575   0.18701   1.000
    C229    C    0.61762   0.43575   0.18701   1.000
    C230    C    0.11906   0.43338   0.12810   1.000
    C231    C    0.61907   0.43338   0.12810   1.000
    O232    O    0.29209   0.18178   0.99018   1.000
    O233    O    0.79210   0.18178   0.99018   1.000
    O234    O    0.46021   0.81803   0.48946   1.000
    O235    O    0.96022   0.81803   0.48940   1.000
    O236    O    0.21020   0.68197   0.51056   1.000
    O237    O    0.71021   0.68197   0.51056   1.000
    O238    O    0.04210   0.31823   0.00983   1.000
    O239    O    0.54211   0.31823   0.00983   1.000
loop_
    _geom_bond_atom_site_label_1
    _geom_bond_atom_site_label_2
    _geom_bond_distance
    _geom_bond_site_symmetry_2
    _ccdc_geom_bond_type
    O239   C115      1.41850      .   S
    O238   C114      1.41891      .   S
    H89    C115      1.10608      .   S
    H88    C114      1.10640      .   S
    C115   C221      1.52605      .   S
    C114   C116      1.52511      .   S
    C221   C231      1.39882      .   S
    C221   C223      1.39966      .   S
    C116   C230      1.39882      .   S
    C116   C222      1.39965      .   S
    H99    C231      1.08984      .   S
    H98    C230      1.08984      .   S
    H90    C222      1.08901      .   S
    H91    C223      1.08902      .   S
    C151   C153      1.42200      .   S
    C151   C149      1.38521      .   S
    C152   C154      1.42198      .   S
    C152   C150      1.38522      .   S
    C230   C228      1.39839      .   S
    C231   C229      1.39839      .   S
    H32    C153      1.08895      .   S
    H33    C154      1.08883      .   S
    C223   C225      1.39593      .   S
    C222   C224      1.39593      .   S
    H31    C150      1.08984      .   S
    H30    C149      1.08986      .   S
    C153   C155      1.37576      .   S
    C154   C156      1.37577      .   S
    C150   C144      1.41386  1_545   S
    C149   C143      1.41385  1_545   S
    C201   C203      1.42183      .   S
    C201   C211      1.38552      .   S
    C202   C204      1.42187      .   S
    C202   C212      1.38552      .   S
    H72    C203      1.08881      .   S
    H73    C204      1.08881      .   S
    H76    C211      1.08977      .   S
    H77    C212      1.08978      .   S
    C228   H96       1.09117      .   S
    C228   C226      1.39770      .   S
    C229   H97       1.09117      .   S
    C229   C227      1.39771      .   S
    C224   H92       1.09036      .   S
    C224   C226      1.39707      .   S
    C225   H93       1.09036      .   S
    C225   C227      1.39707      .   S
    C203   C205      1.37467      .   S
    C204   C206      1.37463      .   S
    C212   C210      1.41501      .   S
    C211   C209      1.41481      .   S
    C155   H35       1.09057  1_455   S
    C155   C145      1.42243  1_545   S
    C156   H34       1.09100      .   S
    C156   C146      1.42245  1_545   S
    C144   C146      1.43790      .   S
    C144   C142      1.42164      .   S
    C143   C145      1.43792      .   S
    C143   C141      1.42163      .   S
    C227   H95       1.09079      .   S
    C226   H94       1.09079      .   S
    H27    C142      1.09133      .   S
    H26    C141      1.09133      .   S
    H43    C166      1.09062      .   S
    H42    C165      1.09062      .   S
    C146   C148      1.41530      .   S
    C145   C147      1.41529      .   S
    C141   C139      1.37349      .   S
    C142   C140      1.37350      .   S
    C205   H74       1.09138      .   S
    C205   C207      1.42178      .   S
    C206   H75       1.09140      .   S
    C206   C208      1.42179      .   S
    C209   C207      1.43785      .   S
    C209   C219      1.42171      .   S
    C210   C208      1.43776      .   S
    C210   C220      1.42233      .   S
    H83    C219      1.09044      .   S
    H82    C220      1.09053  1_455   S
    C165   C163      1.39703      .   S
    C165   C167      1.39768      .   S
    C166   C164      1.39713      .   S
    C166   C168      1.39683      .   S
    C207   C213      1.41367      .   S
    C208   C214      1.41366      .   S
    H40    C163      1.09027      .   S
    H41    C164      1.09027      .   S
    H45    C168      1.09022      .   S
    H44    C167      1.09100      .   S
    C219   C217      1.37710      .   S
    C220   C218      1.37576      .   S
    C147   H28       1.08992      .   S
    C147   C137      1.38551      .   S
    C148   H29       1.08990      .   S
    C148   C138      1.38480      .   S
    C139   H24       1.08930      .   S
    C139   C137      1.42221      .   S
    C140   H25       1.08930      .   S
    C140   C138      1.42159      .   S
    C163   C161      1.39596      .   S
    C164   C162      1.39573      .   S
    C168   C170      1.39816      .   S
    C167   C169      1.39650      .   S
    C214   H79       1.08987      .   S
    C214   C216      1.38528      .   S
    C213   H78       1.08984      .   S
    C213   C215      1.38526      .   S
    C217   H80       1.08880      .   S
    C217   C215      1.42167      .   S
    C218   H81       1.08891      .   S
    C218   C216      1.42170      .   S
    C162   H39       1.08900      .   S
    C162   C160      1.39951      .   S
    C161   H38       1.08901      .   S
    C161   C159      1.39949      .   S
    C170   H47       1.09088      .   S
    C170   C160      1.39950      .   S
    C169   H46       1.09087      .   S
    C169   C159      1.39951      .   S
    C159   C157      1.51736      .   S
    C160   C158      1.52446      .   S
    C157   H36       1.10883      .   S
    C157   O234      1.42172      .   S
    C158   H37       1.10631      .   S
    C158   O235      1.41811      .   S
    O236   C187      1.41880      .   S
    O237   C188      1.41882      .   S
    H60    C187      1.10634      .   S
    H61    C188      1.10634      .   S
    C187   C189      1.52425      .   S
    C188   C190      1.52235      .   S
    C190   C200      1.40001      .   S
    C190   C192      1.40065      .   S
    C189   C199      1.39954      .   S
    C189   C191      1.39955      .   S
    H71    C200      1.09040      .   S
    H70    C199      1.09088      .   S
    H63    C192      1.08903      .   S
    H62    C191      1.08891      .   S
    C117   C119      1.42170      .   S
    C117   C112      1.38529      .   S
    C118   C120      1.42169      .   S
    C118   C113      1.38528      .   S
    C200   C198      1.39748      .   S
    C199   C197      1.39463      .   S
    H9     C120      1.08900      .   S
    H8     C119      1.08886      .   S
    C191   C193      1.39575      .   S
    C192   C194      1.39575      .   S
    H6     C112      1.08983      .   S
    H7     C113      1.08981      .   S
    C120   C122      1.37587      .   S
    C119   C121      1.37586      .   S
    C112   C106      1.41381  1_565   S
    C113   C107      1.41382  1_565   S
    C171   C173      1.42163      .   S
    C171   C177      1.38483      .   S
    C172   C174      1.42175      .   S
    C172   C178      1.38555      .   S
    H49    C174      1.08865      .   S
    H48    C173      1.08839      .   S
    H53    C178      1.08988      .   S
    H52    C177      1.08914      .   S
    C197   H68       1.09102      .   S
    C197   C195      1.39861      .   S
    C198   H69       1.09102      .   S
    C198   C196      1.39776      .   S
    C193   H64       1.09039      .   S
    C193   C195      1.39710      .   S
    C194   H65       1.09027      .   S
    C194   C196      1.39710      .   S
    C173   C175      1.37513      .   S
    C174   C84       1.37468      .   S
    C177   C87       1.41535      .   S
    C178   C176      1.41535      .   S
    C121   H10       1.09104      .   S
    C121   C108      1.42237  1_565   S
    C122   H11       1.09102      .   S
    C122   C109      1.42238  1_565   S
    C107   C109      1.43773      .   S
    C107   C105      1.42102      .   S
    C106   C108      1.43773      .   S
    C106   C104      1.42101      .   S
    C195   H66       1.09065      .   S
    C196   H67       1.09041      .   S
    H3     C105      1.09078      .   S
    H2     C104      1.09079  1_655   S
    H19    C132      1.09058      .   S
    H18    C131      1.09082      .   S
    C109   C111      1.41491      .   S
    C108   C110      1.41490      .   S
    C104   C102      1.37588      .   S
    C105   C103      1.37589      .   S
    C84    H51       1.03320  1_655   S
    C84    C86       1.42153      .   S
    C175   H50       1.09130      .   S
    C175   C85       1.42154      .   S
    C87    C85       1.43852      .   S
    C87    C185      1.42321      .   S
    C176   C86       1.43782      .   S
    C176   C186      1.42232      .   S
    H59    C186      1.09101      .   S
    H58    C185      1.09102      .   S
    C132   C130      1.39711      .   S
    C132   C134      1.39777      .   S
    C131   C129      1.39701      .   S
    C131   C133      1.39765      .   S
    C86    C180      1.41404      .   S
    C85    C179      1.41405      .   S
    H17    C130      1.09030      .   S
    H16    C129      1.09030      .   S
    H20    C133      1.09112      .   S
    H21    C134      1.09111      .   S
    C185   C183      1.37490      .   S
    C186   C184      1.37600      .   S
    C111   H5        1.08976      .   S
    C111   C101      1.38549      .   S
    C110   H4        1.08978      .   S
    C110   C100      1.38548      .   S
    C103   H1        1.08642      .   S
    C103   C101      1.42184      .   S
    C102   H0        1.08642      .   S
    C102   C100      1.42183      .   S
    C130   C128      1.39596      .   S
    C129   C127      1.39596      .   S
    C133   C135      1.39652      .   S
    C134   C136      1.39652      .   S
    C179   H54       1.08982      .   S
    C179   C181      1.38507      .   S
    C180   H55       1.08984      .   S
    C180   C182      1.38470      .   S
    C183   H56       1.08940      .   S
    C183   C181      1.42241      .   S
    C184   H57       1.08890      .   S
    C184   C182      1.42161      .   S
    C128   H15       1.08907      .   S
    C128   C126      1.39975      .   S
    C127   H14       1.08906      .   S
    C127   C125      1.39975      .   S
    C136   H23       1.09087      .   S
    C136   C126      1.39983      .   S
    C135   H22       1.09087      .   S
    C135   C125      1.39981      .   S
    C125   C123      1.52512      .   S
    C126   C124      1.52512      .   S
    C124   H13       1.10641      .   S
    C124   O233      1.41889      .   S
    C123   H12       1.10640      .   S
    C123   O232      1.41889      .   S
