# CIF file generated by openbabel 2.4.90, see http://openbabel.sf.net
data_I
_chemical_name_common ''
_cell_length_a 20.636
_cell_length_b 15.499
_cell_length_c 23.722
_cell_angle_alpha 89.798
_cell_angle_beta 89.984
_cell_angle_gamma 90.015
_space_group_name_H-M_alt 'P 1'
_space_group_name_Hall 'P 1'
loop_
    _symmetry_equiv_pos_as_xyz
    x,y,z
loop_
    _atom_site_label
    _atom_site_type_symbol
    _atom_site_fract_x
    _atom_site_fract_y
    _atom_site_fract_z
    _atom_site_occupancy
    C0      C    0.12439   0.10780   0.88348   1.000
    C1      C    0.62440   0.10780   0.88348   1.000
    C2      C    0.15931   0.31446   0.01738   1.000
    C3      C    0.65933   0.31446   0.01738   1.000
    C4      C    0.13395   0.91735   0.57040   1.000
    C5      C    0.63396   0.91735   0.57040   1.000
    C6      C    0.40931   0.18554   0.98263   1.000
    C7      C    0.90932   0.18554   0.98263   1.000
    C8      C    0.12686   0.89526   0.38460   1.000
    C9      C    0.62687   0.89526   0.38460   1.000
    C10     C    0.11842   0.08263   0.06973   1.000
    C11     C    0.61843   0.08263   0.06973   1.000
    C12     C    0.34301   0.81447   0.48187   1.000
    C13     C    0.84302   0.81447   0.48187   1.000
    C14     C    0.37683   0.60474   0.61542   1.000
    C15     C    0.87684   0.60474   0.61543   1.000
    C16     C    0.36843   0.41740   0.93031   1.000
    C17     C    0.86845   0.41739   0.93031   1.000
    C18     C    0.09299   0.68553   0.51816   1.000
    C19     C    0.59300   0.68553   0.51816   1.000
    C20     C    0.37440   0.39221   0.11654   1.000
    C21     C    0.87441   0.39220   0.11650   1.000
    C22     C    0.38395   0.58262   0.42960   1.000
    C23     C    0.88397   0.58263   0.42964   1.000
    O24     O    0.17763   0.08864   0.90866   1.000
    O25     O    0.67764   0.08864   0.90866   1.000
    O26     O    0.07795   0.15163   0.90369   1.000
    O27     O    0.57796   0.15163   0.90369   1.000
    O28     O    0.07651   0.92166   0.54994   1.000
    O29     O    0.57652   0.92166   0.54994   1.000
    O30     O    0.18330   0.88510   0.54606   1.000
    O31     O    0.68331   0.88510   0.54600   1.000
    O32     O    0.40275   0.25171   0.01459   1.000
    O33     O    0.90276   0.25171   0.01459   1.000
    O34     O    0.46201   0.15552   0.96530   1.000
    O35     O    0.96202   0.15552   0.96530   1.000
    O36     O    0.07369   0.91462   0.40978   1.000
    O37     O    0.57371   0.91462   0.40978   1.000
    O38     O    0.17314   0.85124   0.40504   1.000
    O39     O    0.67315   0.85123   0.40504   1.000
    O40     O    0.17577   0.07795   0.04914   1.000
    O41     O    0.67578   0.07795   0.04914   1.000
    O42     O    0.06914   0.11504   0.04527   1.000
    O43     O    0.56915   0.11504   0.04527   1.000
    O44     O    0.34972   0.74783   0.51366   1.000
    O45     O    0.84973   0.74782   0.51366   1.000
    O46     O    0.29021   0.84453   0.46460   1.000
    O47     O    0.79023   0.84453   0.46462   1.000
    O48     O    0.32366   0.58538   0.59026   1.000
    O49     O    0.82367   0.58538   0.59026   1.000
    O50     O    0.42312   0.64879   0.59490   1.000
    O51     O    0.92313   0.64878   0.59490   1.000
    O52     O    0.42579   0.42206   0.95086   1.000
    O53     O    0.92580   0.42206   0.95086   1.000
    O54     O    0.31914   0.38501   0.95481   1.000
    O55     O    0.81916   0.38501   0.95482   1.000
    O56     O    0.09973   0.75217   0.48635   1.000
    O57     O    0.59974   0.75217   0.48635   1.000
    O58     O    0.04017   0.65546   0.53541   1.000
    O59     O    0.54018   0.65546   0.53541   1.000
    O60     O    0.42765   0.41138   0.09135   1.000
    O61     O    0.92766   0.41138   0.09135   1.000
    O62     O    0.32795   0.34838   0.09633   1.000
    O63     O    0.82796   0.34838   0.09633   1.000
    O64     O    0.32652   0.57829   0.45013   1.000
    O65     O    0.82653   0.57828   0.45013   1.000
    O66     O    0.43332   0.61491   0.45394   1.000
    O67     O    0.93333   0.61491   0.45390   1.000
    O68     O    0.15274   0.24830   0.98541   1.000
    O69     O    0.65275   0.24830   0.98541   1.000
    O70     O    0.21202   0.34447   0.03460   1.000
    O71     O    0.71203   0.34447   0.03460   1.000
loop_
    _geom_bond_atom_site_label_1
    _geom_bond_atom_site_label_2
    _geom_bond_distance
    _geom_bond_site_symmetry_2
    _ccdc_geom_bond_type
    O33    C7        1.28459  1_554   S
    O32    C6        1.28459  1_554   S
    C3     O71       1.25197      .   S
    C3     O69       1.28472  1_554   S
    C2     O70       1.25199      .   S
    C2     O68       1.28471  1_554   S
    O43    C11       1.27348      .   S
    O42    C10       1.27346      .   S
    O41    C11       1.28233      .   S
    O40    C10       1.28233      .   S
    O61    C21       1.28454      .   S
    O60    C20       1.28500      .   S
    O62    C20       1.26982      .   S
    O63    C21       1.26943      .   S
    C9     O39       1.26925      .   S
    C9     O37       1.28515      .   S
    C8     O38       1.26922      .   S
    C8     O36       1.28517      .   S
    C22    O64       1.28291      .   S
    C22    O66       1.27413      .   S
    C23    O65       1.28249      .   S
    C23    O67       1.27327      .   S
    O46    C12       1.25343      .   S
    O47    C13       1.25327      .   S
    C12    O44       1.28434      .   S
    C13    O45       1.28437      .   S
    O56    C18       1.28450      .   S
    O57    C19       1.28448      .   S
    C18    O58       1.25329      .   S
    C19    O59       1.25331      .   S
    O31    C5        1.27447      .   S
    O30    C4        1.27381      .   S
    O29    C5        1.28255      .   S
    O28    C4        1.28255      .   S
    O49    C15       1.28529      .   S
    O48    C14       1.28518      .   S
    O50    C14       1.26985      .   S
    O51    C15       1.26992      .   S
    C0     O26       1.26979      .   S
    C0     O24       1.28499      .   S
    C1     O27       1.26979      .   S
    C1     O25       1.28502      .   S
    C17    O53       1.28234      .   S
    C17    O55       1.27350      .   S
    C16    O52       1.28235      .   S
    C16    O54       1.27344      .   S
    O35    C7        1.25293      .   S
    O34    C6        1.25293      .   S
