# CIF file generated by openbabel 2.4.90, see http://openbabel.sf.net
data_I
_chemical_name_common ''
_cell_length_a 20.636
_cell_length_b 15.499
_cell_length_c 23.722
_cell_angle_alpha 89.798
_cell_angle_beta 89.984
_cell_angle_gamma 90.015
_space_group_name_H-M_alt 'P 1'
_space_group_name_Hall 'P 1'
loop_
    _symmetry_equiv_pos_as_xyz
    x,y,z
loop_
    _atom_site_label
    _atom_site_type_symbol
    _atom_site_fract_x
    _atom_site_fract_y
    _atom_site_fract_z
    _atom_site_occupancy
    C0      C    0.12439   0.10780   0.88348   1.000
    C1      C    0.62440   0.10780   0.88348   1.000
    C2      C    0.15931   0.31446   0.01738   1.000
    C3      C    0.65933   0.31446   0.01738   1.000
    C4      C    0.13395   0.91735   0.57040   1.000
    C5      C    0.63396   0.91735   0.57040   1.000
    C6      C    0.40931   0.18554   0.98263   1.000
    C7      C    0.90932   0.18554   0.98263   1.000
    C8      C    0.12686   0.89526   0.38460   1.000
    C9      C    0.62687   0.89526   0.38460   1.000
    C10     C    0.11842   0.08263   0.06973   1.000
    C11     C    0.61843   0.08263   0.06973   1.000
    C12     C    0.34301   0.81447   0.48187   1.000
    C13     C    0.84302   0.81447   0.48187   1.000
    C14     C    0.37683   0.60474   0.61542   1.000
    C15     C    0.87684   0.60474   0.61543   1.000
    C16     C    0.36843   0.41740   0.93031   1.000
    C17     C    0.86845   0.41739   0.93031   1.000
    C18     C    0.09299   0.68553   0.51816   1.000
    C19     C    0.59300   0.68553   0.51816   1.000
    C20     C    0.37440   0.39221   0.11654   1.000
    C21     C    0.87441   0.39220   0.11650   1.000
    C22     C    0.38395   0.58262   0.42960   1.000
    C23     C    0.88397   0.58263   0.42964   1.000
