# CIF file generated by openbabel 2.4.90, see http://openbabel.sf.net
data_I
_chemical_name_common ''
_cell_length_a 19.314
_cell_length_b 21.4
_cell_length_c 26.004
_cell_angle_alpha 57.185
_cell_angle_beta 75.071
_cell_angle_gamma 69.375
_space_group_name_H-M_alt 'P 1'
_space_group_name_Hall 'P 1'
loop_
    _symmetry_equiv_pos_as_xyz
    x,y,z
loop_
    _atom_site_label
    _atom_site_type_symbol
    _atom_site_fract_x
    _atom_site_fract_y
    _atom_site_fract_z
    _atom_site_occupancy
    Zr0     Zr   0.14567   0.00264   0.24676   1.000
    Zr1     Zr   0.14562   0.00262   0.74683   1.000
    Zr2     Zr   0.14565   0.50257   0.24686   1.000
    Zr3     Zr   0.14563   0.50263   0.74681   1.000
    Zr4     Zr   0.64567   0.00264   0.24675   1.000
    Zr5     Zr   0.64562   0.00263   0.74680   1.000
    Zr6     Zr   0.64566   0.50257   0.24685   1.000
    Zr7     Zr   0.64563   0.50264   0.74681   1.000
    Zr8     Zr   0.35446   0.49743   0.25317   1.000
    Zr9     Zr   0.35444   0.49750   0.75312   1.000
    Zr10    Zr   0.35447   0.99744   0.25314   1.000
    Zr11    Zr   0.35441   0.99743   0.75321   1.000
    Zr12    Zr   0.85446   0.49744   0.25316   1.000
    Zr13    Zr   0.85444   0.49750   0.75312   1.000
    Zr14    Zr   0.85447   0.99745   0.25314   1.000
    Zr15    Zr   0.85442   0.99744   0.75321   1.000
    N16     N    0.87032   0.76972   0.20111   1.000
    O17     O    0.84760   0.86847   0.21982   1.000
    O18     O    0.97961   0.66214   0.21820   1.000
    O19     O    0.88298   0.65438   0.21654   1.000
    N20     N    0.62983   0.73036   0.79884   1.000
    O21     O    0.65256   0.63163   0.78009   1.000
    O22     O    0.52051   0.83791   0.78182   1.000
    O23     O    0.61716   0.84569   0.78342   1.000
    N24     N    0.12983   0.73036   0.79883   1.000
    O25     O    0.11715   0.84569   0.78343   1.000
    O26     O    0.15255   0.63163   0.78007   1.000
    O27     O    0.02051   0.83791   0.78182   1.000
    N28     N    0.62977   0.23034   0.79884   1.000
    O29     O    0.65250   0.13160   0.78011   1.000
    O30     O    0.52048   0.33793   0.78178   1.000
    O31     O    0.61712   0.34568   0.78342   1.000
    N32     N    0.75007   0.25008   0.99995   1.000
    O33     O    0.70947   0.14986   0.09861   1.000
    O34     O    0.71003   0.35123   0.89804   1.000
    O35     O    0.79010   0.14892   0.10187   1.000
    O36     O    0.79066   0.35029   0.90128   1.000
    N37     N    0.62987   0.73035   0.29882   1.000
    O38     O    0.61720   0.84569   0.28339   1.000
    O39     O    0.65259   0.63159   0.28010   1.000
    O40     O    0.52055   0.83791   0.28177   1.000
    N41     N    0.87028   0.76976   0.70113   1.000
    O42     O    0.97958   0.66219   0.71819   1.000
    O43     O    0.84755   0.86848   0.71988   1.000
    O44     O    0.88294   0.65444   0.71653   1.000
    N45     N    0.25002   0.74999   0.00001   1.000
    O46     O    0.20943   0.64978   0.09869   1.000
    O47     O    0.20998   0.85115   0.89809   1.000
    O48     O    0.29007   0.64884   0.10192   1.000
    O49     O    0.29061   0.85021   0.90135   1.000
    N50     N    0.12986   0.73034   0.29877   1.000
    O51     O    0.02055   0.83791   0.28176   1.000
    O52     O    0.15258   0.63159   0.28008   1.000
    O53     O    0.11720   0.84569   0.28335   1.000
    N54     N    0.12981   0.23030   0.29884   1.000
    O55     O    0.15254   0.13159   0.28008   1.000
    O56     O    0.11715   0.34563   0.28344   1.000
    O57     O    0.02051   0.33788   0.28179   1.000
    N58     N    0.87023   0.26973   0.70111   1.000
    O59     O    0.84751   0.36848   0.71985   1.000
    O60     O    0.97954   0.16217   0.71817   1.000
    O61     O    0.88289   0.15439   0.71656   1.000
    N62     N    0.75006   0.25005   0.50002   1.000
    O63     O    0.71003   0.35118   0.39810   1.000
    O64     O    0.79007   0.14890   0.60194   1.000
    O65     O    0.70944   0.14984   0.59868   1.000
    O66     O    0.79067   0.35024   0.40134   1.000
    N67     N    0.25005   0.25005   0.49998   1.000
    O68     O    0.21003   0.35118   0.39808   1.000
    O69     O    0.29066   0.35023   0.40132   1.000
    O70     O    0.20943   0.14984   0.59867   1.000
    O71     O    0.29006   0.14890   0.60193   1.000
    N72     N    0.75003   0.74999   0.00001   1.000
    O73     O    0.79062   0.85021   0.90135   1.000
    O74     O    0.70943   0.64979   0.09868   1.000
    O75     O    0.70999   0.85115   0.89808   1.000
    O76     O    0.79007   0.64885   0.10192   1.000
    N77     N    0.37022   0.26973   0.70112   1.000
    O78     O    0.38289   0.15439   0.71656   1.000
    O79     O    0.47954   0.16217   0.71816   1.000
    O80     O    0.34750   0.36848   0.71985   1.000
    N81     N    0.62981   0.23031   0.29878   1.000
    O82     O    0.52051   0.33788   0.28177   1.000
    O83     O    0.65254   0.13159   0.27983   1.000
    O84     O    0.61715   0.34563   0.28341   1.000
    N85     N    0.37026   0.26971   0.20112   1.000
    O86     O    0.38293   0.15438   0.21653   1.000
    O87     O    0.47958   0.16216   0.21814   1.000
    O88     O    0.34754   0.36844   0.21988   1.000
    N89     N    0.87026   0.26971   0.20102   1.000
    O90     O    0.97958   0.16216   0.21807   1.000
    O91     O    0.84754   0.36844   0.21982   1.000
    O92     O    0.88294   0.15439   0.21648   1.000
    N93     N    0.12976   0.23034   0.79885   1.000
    O94     O    0.02048   0.33793   0.78178   1.000
    O95     O    0.11711   0.34568   0.78343   1.000
    O96     O    0.15249   0.13160   0.78013   1.000
    N97     N    0.37028   0.76976   0.70113   1.000
    O98     O    0.47958   0.66219   0.71818   1.000
    O99     O    0.34754   0.86848   0.71988   1.000
    O100    O    0.38294   0.65443   0.71653   1.000
    N101    N    0.25003   0.75002   0.49995   1.000
    O102    O    0.20942   0.64983   0.59863   1.000
    O103    O    0.29065   0.85023   0.40126   1.000
    O104    O    0.21002   0.85117   0.39802   1.000
    O105    O    0.29006   0.64889   0.60187   1.000
    N106    N    0.37032   0.76972   0.20112   1.000
    O107    O    0.47961   0.66214   0.21819   1.000
    O108    O    0.34759   0.86847   0.21984   1.000
    O109    O    0.38297   0.65438   0.21653   1.000
    N110    N    0.25006   0.25008   0.99993   1.000
    O111    O    0.29010   0.14892   0.10186   1.000
    O112    O    0.29066   0.35029   0.90127   1.000
    O113    O    0.21002   0.35122   0.89804   1.000
    O114    O    0.20947   0.14986   0.09861   1.000
    N115    N    0.75004   0.75003   0.49995   1.000
    O116    O    0.79007   0.64890   0.60187   1.000
    O117    O    0.70943   0.64984   0.59863   1.000
    O118    O    0.71002   0.85117   0.39802   1.000
    O119    O    0.79065   0.85023   0.40128   1.000
    O120    O    0.28389   0.36813   0.71472   1.000
    O121    O    0.28392   0.36810   0.21475   1.000
    O122    O    0.78394   0.86816   0.71472   1.000
    O123    O    0.28393   0.86816   0.71473   1.000
    O124    O    0.28398   0.86814   0.21469   1.000
    O125    O    0.78389   0.36814   0.71472   1.000
    O126    O    0.21610   0.13192   0.78528   1.000
    O127    O    0.21620   0.63193   0.28521   1.000
    O128    O    0.21617   0.63197   0.78521   1.000
    O129    O    0.71620   0.63194   0.28523   1.000
    O130    O    0.71617   0.63197   0.78522   1.000
    O131    O    0.71616   0.13191   0.28510   1.000
    O132    O    0.21615   0.13191   0.28523   1.000
    O133    O    0.78398   0.86814   0.21467   1.000
    O134    O    0.78392   0.36810   0.21469   1.000
    O135    O    0.71611   0.13193   0.78527   1.000
loop_
    _geom_bond_atom_site_label_1
    _geom_bond_atom_site_label_2
    _geom_bond_distance
    _geom_bond_site_symmetry_2
    _ccdc_geom_bond_type
    N16    O17       2.29029      .   S
    Zr14   O17       3.36105      .   S
    N16    O18       2.42990      .   S
    Zr2    O18       3.64123  1_455   S
    N16    O19       2.20572      .   S
    Zr12   O19       3.17127      .   S
    N20    O21       2.29071      .   S
    Zr7    O21       3.36097      .   S
    N20    O22       2.43008      .   S
    Zr11   O22       3.64142      .   S
    N20    O23       2.20554      .   S
    Zr5    O23       3.17063  1_545   S
    N24    O25       2.20564      .   S
    Zr1    O25       3.17077  1_545   S
    N24    O26       2.29104      .   S
    Zr3    O26       3.36057      .   S
    N24    O27       2.43007      .   S
    Zr15   O27       3.64141  1_655   S
    N28    O29       2.29057      .   S
    Zr5    O29       3.36078      .   S
    N28    O30       2.42996      .   S
    Zr9    O30       3.64128      .   S
    N28    O31       2.20584      .   S
    Zr7    O31       3.17146      .   S
    N32    O33       2.44563  1_556   S
    Zr4    O33       3.66314      .   S
    N32    O34       2.44246      .   S
    Zr7    O34       3.65809      .   S
    N32    O35       2.44265  1_556   S
    Zr14   O35       3.65873  1_565   S
    N32    O36       2.44561      .   S
    Zr13   O36       3.66325      .   S
    N37    O38       2.20565      .   S
    Zr4    O38       3.17085  1_545   S
    N37    O39       2.29073      .   S
    Zr6    O39       3.36105      .   S
    N37    O40       2.43005      .   S
    Zr10   O40       3.64144      .   S
    N41    O42       2.42993      .   S
    Zr3    O42       3.64126  1_455   S
    N41    O43       2.29057      .   S
    Zr15   O43       3.36054      .   S
    N41    O44       2.20569      .   S
    Zr13   O44       3.17119      .   S
    N45    O46       2.44567      .   S
    Zr2    O46       3.66334      .   S
    N45    O47       2.44264  1_554   S
    Zr1    O47       3.65871  1_545   S
    N45    O48       2.44251      .   S
    Zr8    O48       3.65829      .   S
    N45    O49       2.44566  1_554   S
    Zr11   O49       3.66321      .   S
    N50    O51       2.43015      .   S
    Zr14   O51       3.64147  1_655   S
    N50    O52       2.29023      .   S
    Zr2    O52       3.36043      .   S
    N50    O53       2.20582      .   S
    Zr0    O53       3.17122  1_545   S
    N54    O55       2.29046      .   S
    Zr0    O55       3.36043      .   S
    N54    O56       2.20579      .   S
    Zr2    O56       3.17134      .   S
    N54    O57       2.42994      .   S
    Zr12   O57       3.64127  1_655   S
    N58    O59       2.29104      .   S
    Zr13   O59       3.36134      .   S
    N58    O60       2.43001      .   S
    Zr1    O60       3.64136  1_455   S
    N58    O61       2.20550      .   S
    Zr15   O61       3.17076  1_565   S
    N62    O63       2.44248      .   S
    Zr6    O63       3.65811      .   S
    N62    O64       2.44262      .   S
    Zr15   O64       3.65862  1_565   S
    N62    O65       2.44563      .   S
    Zr5    O65       3.66304      .   S
    N62    O66       2.44570      .   S
    Zr12   O66       3.66342      .   S
    N67    O68       2.44210      .   S
    Zr2    O68       3.65770      .   S
    N67    O69       2.44546      .   S
    Zr8    O69       3.66313      .   S
    N67    O70       2.44594      .   S
    Zr1    O70       3.66355      .   S
    N67    O71       2.44292      .   S
    Zr11   O71       3.65894  1_565   S
    N72    O73       2.44563  1_554   S
    Zr15   O73       3.66317      .   S
    N72    O74       2.44567      .   S
    Zr6    O74       3.66328      .   S
    N72    O75       2.44274  1_554   S
    Zr5    O75       3.65909  1_545   S
    N72    O76       2.44250      .   S
    Zr12   O76       3.65818      .   S
    N77    O78       2.20550      .   S
    Zr11   O78       3.17082  1_565   S
    N77    O79       2.43005      .   S
    Zr5    O79       3.64142      .   S
    N77    O80       2.29100      .   S
    Zr9    O80       3.36130      .   S
    N81    O82       2.43004      .   S
    Zr8    O82       3.64135      .   S
    N81    O83       2.29392      .   S
    Zr4    O83       3.35589      .   S
    N81    O84       2.20601      .   S
    Zr6    O84       3.17155      .   S
    N85    O86       2.20555      .   S
    Zr10   O86       3.17079  1_565   S
    N85    O87       2.43006      .   S
    Zr4    O87       3.64140      .   S
    N85    O88       2.29084      .   S
    Zr8    O88       3.36114      .   S
    N89    O90       2.42993      .   S
    Zr0    O90       3.64125  1_455   S
    N89    O91       2.29167      .   S
    Zr12   O91       3.36202      .   S
    N89    O92       2.20504      .   S
    Zr14   O92       3.17031  1_565   S
    N93    O94       2.42992      .   S
    Zr13   O94       3.64125  1_655   S
    N93    O95       2.20578      .   S
    Zr3    O95       3.17139      .   S
    N93    O96       2.29055      .   S
    Zr1    O96       3.36050      .   S
    N97    O98       2.42995      .   S
    Zr7    O98       3.64127      .   S
    N97    O99       2.29054      .   S
    Zr11   O99       3.36052      .   S
    N97    O100      2.20569      .   S
    Zr9    O100      3.17121      .   S
    N101   O102      2.44576      .   S
    Zr3    O102      3.66345      .   S
    N101   O103      2.44599      .   S
    Zr10   O103      3.66300      .   S
    N101   O104      2.44257      .   S
    Zr0    O104      3.65857  1_545   S
    N101   O105      2.44252      .   S
    Zr9    O105      3.65820      .   S
    N106   O107      2.42994      .   S
    Zr6    O107      3.64126      .   S
    N106   O108      2.29060      .   S
    Zr10   O108      3.36057      .   S
    N106   O109      2.20593      .   S
    Zr8    O109      3.17109      .   S
    N110   O111      2.44283  1_556   S
    Zr10   O111      3.65893  1_565   S
    N110   O112      2.44549      .   S
    Zr9    O112      3.66314      .   S
    N110   O113      2.44224      .   S
    Zr3    O113      3.65794      .   S
    N110   O114      2.44578  1_556   S
    Zr0    O114      3.66335      .   S
    N115   O116      2.44250      .   S
    Zr13   O116      3.65817      .   S
    N115   O117      2.44575      .   S
    Zr7    O117      3.66344      .   S
    N115   O118      2.44264      .   S
    Zr4    O118      3.65874  1_545   S
    N115   O119      2.44571      .   S
    Zr14   O119      3.66329      .   S
    Zr3    O120      3.48591      .   S
    N77    O120      2.31739      .   S
    Zr2    O121      3.48588      .   S
    N85    O121      2.31729      .   S
    Zr5    O122      3.48578  1_545   S
    N41    O122      2.31715      .   S
    Zr1    O123      3.48602  1_545   S
    N97    O123      2.31722      .   S
    Zr0    O124      3.48602  1_545   S
    N106   O124      2.31723      .   S
    Zr7    O125      3.48599      .   S
    N58    O125      2.31741      .   S
    Zr11   O126      3.48600  1_565   S
    N93    O126      2.31720      .   S
    Zr8    O127      3.48534      .   S
    N50    O127      2.31687      .   S
    Zr9    O128      3.48565      .   S
    N24    O128      2.31733      .   S
    Zr12   O129      3.48575      .   S
    N37    O129      2.31721      .   S
    Zr13   O130      3.48577      .   S
    N20    O130      2.31722      .   S
    Zr14   O131      3.48416  1_565   S
    N81    O131      2.31820      .   S
    Zr10   O132      3.48584  1_565   S
    N54    O132      2.31730      .   S
    Zr4    O133      3.48615  1_545   S
    N16    O133      2.31712      .   S
    Zr6    O134      3.48651      .   S
    N89    O134      2.31789      .   S
    Zr15   O135      3.48589  1_565   S
    N28    O135      2.31714      .   S
