# CIF file generated by openbabel 2.4.90, see http://openbabel.sf.net
data_I
_chemical_name_common ''
_cell_length_a 13.444
_cell_length_b 14.201
_cell_length_c 19.045
_cell_angle_alpha 90.774
_cell_angle_beta 108.294
_cell_angle_gamma 93.384
_space_group_name_H-M_alt 'P 1'
_space_group_name_Hall 'P 1'
loop_
    _symmetry_equiv_pos_as_xyz
    x,y,z
loop_
    _atom_site_label
    _atom_site_type_symbol
    _atom_site_fract_x
    _atom_site_fract_y
    _atom_site_fract_z
    _atom_site_occupancy
    Cd0     Cd   0.47685   0.88782   0.58160   1.000
    Cd1     Cd   0.06908   0.53052   0.80500   1.000
    Cd2     Cd   0.52311   0.11212   0.41830   1.000
    Cd3     Cd   0.93087   0.46943   0.19495   1.000
