# CIF file generated by openbabel 2.4.90, see http://openbabel.sf.net
data_I
_chemical_name_common ''
_cell_length_a 14.239
_cell_length_b 14.542
_cell_length_c 15.068
_cell_angle_alpha 89.691
_cell_angle_beta 90.222
_cell_angle_gamma 90.189
_space_group_name_H-M_alt 'P 1'
_space_group_name_Hall 'P 1'
loop_
    _symmetry_equiv_pos_as_xyz
    x,y,z
loop_
    _atom_site_label
    _atom_site_type_symbol
    _atom_site_fract_x
    _atom_site_fract_y
    _atom_site_fract_z
    _atom_site_occupancy
    H0      H    0.83410   0.76447   0.02647   1.000
    H1      H    0.97678   0.69915   0.27126   1.000
    H2      H    0.73993   0.53606   0.18640   1.000
    H3      H    0.66575   0.23663   0.52801   1.000
    H4      H    0.52167   0.30430   0.76970   1.000
    H5      H    0.76070   0.46489   0.68607   1.000
    H6      H    0.16723   0.26347   0.47117   1.000
    H7      H    0.02022   0.20035   0.22858   1.000
    H8      H    0.25815   0.03726   0.30973   1.000
    H9      H    0.33360   0.73872   0.97400   1.000
    H10     H    0.47647   0.80390   0.73085   1.000
    H11     H    0.23882   0.96510   0.81250   1.000
    C12     C    0.77940   0.64800   0.09926   1.000
    C13     C    0.84097   0.72201   0.08580   1.000
    C14     C    0.91177   0.74074   0.14789   1.000
    C15     C    0.92097   0.68524   0.22362   1.000
    C16     C    0.85875   0.61188   0.23775   1.000
    C17     C    0.78783   0.59345   0.17563   1.000
    C18     C    0.70654   0.62710   0.03106   1.000
    C19     C    0.97923   0.81783   0.13293   1.000
    C20     C    0.86925   0.55108   0.31655   1.000
    C21     C    0.72110   0.35278   0.60000   1.000
    C22     C    0.65883   0.27939   0.58664   1.000
    C23     C    0.58726   0.26169   0.64791   1.000
    C24     C    0.57800   0.31755   0.72277   1.000
    C25     C    0.64073   0.39047   0.73675   1.000
    C26     C    0.71238   0.40786   0.67542   1.000
    C27     C    0.79465   0.37301   0.53258   1.000
    C28     C    0.51902   0.18534   0.63281   1.000
    C29     C    0.63039   0.45193   0.81455   1.000
    C30     C    0.22060   0.14817   0.39751   1.000
    C31     C    0.15925   0.22164   0.41196   1.000
    C32     C    0.08724   0.24060   0.35109   1.000
    C33     C    0.07677   0.18613   0.27540   1.000
    C34     C    0.13864   0.11327   0.26024   1.000
    C35     C    0.21060   0.09434   0.32127   1.000
    C36     C    0.29456   0.12703   0.46475   1.000
    C37     C    0.02000   0.31700   0.36723   1.000
    C38     C    0.12647   0.05395   0.18122   1.000
    C39     C    0.27840   0.85402   0.90070   1.000
    C40     C    0.34045   0.78088   0.91528   1.000
    C41     C    0.41155   0.76256   0.85396   1.000
    C42     C    0.42059   0.81762   0.77796   1.000
    C43     C    0.35816   0.89027   0.76283   1.000
    C44     C    0.28696   0.90830   0.82413   1.000
    C45     C    0.20497   0.87461   0.96790   1.000
    C46     C    0.47916   0.68601   0.86935   1.000
    C47     C    0.36885   0.95043   0.68350   1.000
    O48     O    0.65434   0.55544   0.04438   1.000
    O49     O    0.69890   0.67997   0.96403   1.000
    O50     O    0.96767   0.86716   0.06240   1.000
    O51     O    0.04417   0.83132   0.18969   1.000
    O52     O    0.94212   0.56204   0.36671   1.000
    O53     O    0.80745   0.48944   0.33272   1.000
    O54     O    0.84752   0.44407   0.54619   1.000
    O55     O    0.80238   0.32066   0.46574   1.000
    O56     O    0.53040   0.13617   0.56269   1.000
    O57     O    0.45368   0.17229   0.68890   1.000
    O58     O    0.55802   0.44066   0.86500   1.000
    O59     O    0.69188   0.51391   0.82942   1.000
    O60     O    0.34569   0.05503   0.45188   1.000
    O61     O    0.30435   0.17981   0.53110   1.000
    O62     O    0.03244   0.36480   0.43824   1.000
    O63     O    0.95451   0.33173   0.31133   1.000
    O64     O    0.05397   0.06635   0.13092   1.000
    O65     O    0.18667   0.99156   0.16413   1.000
    O66     O    0.15219   0.94528   0.95304   1.000
    O67     O    0.19745   0.82268   0.03560   1.000
    O68     O    0.46841   0.63722   0.94048   1.000
    O69     O    0.54326   0.67189   0.81253   1.000
    O70     O    0.44079   0.93822   0.63313   1.000
    O71     O    0.30818   0.01267   0.66698   1.000
loop_
    _geom_bond_atom_site_label_1
    _geom_bond_atom_site_label_2
    _geom_bond_distance
    _geom_bond_site_symmetry_2
    _ccdc_geom_bond_type
    H0     C13       1.08797      .   S
    C18    O48       1.29321      .   S
    C18    C12       1.48917      .   S
    C18    O49       1.27058  1_554   S
    O67    C45       1.27060  1_554   S
    O50    C19       1.28934      .   S
    C13    C12       1.40036      .   S
    C13    C14       1.39973      .   S
    C12    C17       1.39919      .   S
    O64    C38       1.29085      .   S
    C19    C14       1.49076      .   S
    C19    O51       1.27251  1_655   S
    C14    C15       1.40006      .   S
    O65    C38       1.27815  1_565   S
    C17    H2        1.08794      .   S
    C17    C16       1.40043      .   S
    C38    C34       1.48332      .   S
    C15    C16       1.40041      .   S
    C15    H1        1.08799      .   S
    H7     C33       1.08811      .   S
    C16    C20       1.48402      .   S
    C34    C33       1.40036      .   S
    C34    C35       1.40112      .   S
    C33    C32       1.39933      .   S
    H8     C35       1.08813      .   S
    O63    C37       1.27210  1_655   S
    C20    O53       1.27716      .   S
    C20    O52       1.29125      .   S
    C35    C30       1.40013      .   S
    C32    C37       1.49059      .   S
    C32    C31       1.40025      .   S
    C37    O62       1.29036      .   S
    C30    C31       1.40075      .   S
    C30    C36       1.49013      .   S
    C31    H6        1.08790      .   S
    O60    C36       1.29314      .   S
    C36    O61       1.27060      .   S
    O55    C27       1.27110      .   S
    H3     C22       1.08799      .   S
    C27    O54       1.29336      .   S
    C27    C21       1.48941      .   S
    O56    C28       1.28998      .   S
    C22    C21       1.40012      .   S
    C22    C23       1.40007      .   S
    C21    C26       1.39997      .   S
    C28    C23       1.49083      .   S
    C28    O57       1.27245      .   S
    O70    C47       1.29051      .   S
    C23    C24       1.40052      .   S
    O71    C47       1.27611  1_545   S
    C26    H5        1.08793      .   S
    C26    C25       1.40065      .   S
    C47    C43       1.48541      .   S
    C24    C25       1.40055      .   S
    C24    H4        1.08730      .   S
    H10    C42       1.08798      .   S
    C25    C29       1.48601      .   S
    C43    C42       1.40017      .   S
    C43    C44       1.40053      .   S
    C42    C41       1.39988      .   S
    H11    C44       1.08809      .   S
    O69    C46       1.27172      .   S
    C29    O59       1.27468      .   S
    C29    O58       1.29232      .   S
    C44    C39       1.39986      .   S
    C41    C46       1.49069      .   S
    C41    C40       1.40043      .   S
    C46    O68       1.29148      .   S
    C39    C40       1.40086      .   S
    C39    C45       1.49060      .   S
    C40    H9        1.07828      .   S
    O66    C45       1.29311      .   S
