# CIF file generated by openbabel 2.4.90, see http://openbabel.sf.net
data_I
_chemical_name_common ''
_cell_length_a 14.239
_cell_length_b 14.542
_cell_length_c 15.068
_cell_angle_alpha 89.691
_cell_angle_beta 90.222
_cell_angle_gamma 90.189
_space_group_name_H-M_alt 'P 1'
_space_group_name_Hall 'P 1'
loop_
    _symmetry_equiv_pos_as_xyz
    x,y,z
loop_
    _atom_site_label
    _atom_site_type_symbol
    _atom_site_fract_x
    _atom_site_fract_y
    _atom_site_fract_z
    _atom_site_occupancy
    Zn0     Zn   0.69105   0.66043   0.82545   1.000
    Zn1     Zn   0.93441   0.45719   0.44800   1.000
    Zn2     Zn   0.80696   0.34317   0.32602   1.000
    Zn3     Zn   0.43229   0.04305   0.55122   1.000
    Zn4     Zn   0.30810   0.16027   0.67097   1.000
    Zn5     Zn   0.06568   0.96061   0.05095   1.000
    Zn6     Zn   0.18983   0.84369   0.17448   1.000
    H7      H    0.83410   0.76447   0.02647   1.000
    H8      H    0.97678   0.69915   0.27126   1.000
    H9      H    0.73993   0.53606   0.18640   1.000
    H10     H    0.66575   0.23663   0.52801   1.000
    H11     H    0.52167   0.30430   0.76970   1.000
    H12     H    0.76070   0.46489   0.68607   1.000
    H13     H    0.16723   0.26347   0.47117   1.000
    H14     H    0.02022   0.20035   0.22858   1.000
    H15     H    0.25815   0.03726   0.30973   1.000
    H16     H    0.33360   0.73872   0.97400   1.000
    H17     H    0.47647   0.80390   0.73085   1.000
    H18     H    0.23882   0.96510   0.81250   1.000
    C19     C    0.77940   0.64800   0.09926   1.000
    C20     C    0.84097   0.72201   0.08580   1.000
    C21     C    0.91177   0.74074   0.14789   1.000
    C22     C    0.92097   0.68524   0.22362   1.000
    C23     C    0.85875   0.61188   0.23775   1.000
    C24     C    0.78783   0.59345   0.17563   1.000
    C25     C    0.70654   0.62710   0.03106   1.000
    C26     C    0.97923   0.81783   0.13293   1.000
    C27     C    0.86925   0.55108   0.31655   1.000
    C28     C    0.72110   0.35278   0.60000   1.000
    C29     C    0.65883   0.27939   0.58664   1.000
    C30     C    0.58726   0.26169   0.64791   1.000
    C31     C    0.57800   0.31755   0.72277   1.000
    Zn32    Zn   0.56481   0.54309   0.94793   1.000
    C33     C    0.64073   0.39047   0.73675   1.000
    C34     C    0.71238   0.40786   0.67542   1.000
    C35     C    0.79465   0.37301   0.53258   1.000
    C36     C    0.51902   0.18534   0.63281   1.000
    C37     C    0.63039   0.45193   0.81455   1.000
    C38     C    0.22060   0.14817   0.39751   1.000
    C39     C    0.15925   0.22164   0.41196   1.000
    C40     C    0.08724   0.24060   0.35109   1.000
    C41     C    0.07677   0.18613   0.27540   1.000
    C42     C    0.13864   0.11327   0.26024   1.000
    C43     C    0.21060   0.09434   0.32127   1.000
    C44     C    0.29456   0.12703   0.46475   1.000
    C45     C    0.02000   0.31700   0.36723   1.000
    C46     C    0.12647   0.05395   0.18122   1.000
    C47     C    0.27840   0.85402   0.90070   1.000
    C48     C    0.34045   0.78088   0.91528   1.000
    C49     C    0.41155   0.76256   0.85396   1.000
    C50     C    0.42059   0.81762   0.77796   1.000
    C51     C    0.35816   0.89027   0.76283   1.000
    C52     C    0.28696   0.90830   0.82413   1.000
    C53     C    0.20497   0.87461   0.96790   1.000
    C54     C    0.47916   0.68601   0.86935   1.000
    C55     C    0.36885   0.95043   0.68350   1.000
    O56     O    0.65434   0.55544   0.04438   1.000
    O57     O    0.69890   0.67997   0.96403   1.000
    O58     O    0.96767   0.86716   0.06240   1.000
    O59     O    0.04417   0.83132   0.18969   1.000
    O60     O    0.94212   0.56204   0.36671   1.000
    O61     O    0.80745   0.48944   0.33272   1.000
    O62     O    0.84752   0.44407   0.54619   1.000
    O63     O    0.80238   0.32066   0.46574   1.000
    O64     O    0.53040   0.13617   0.56269   1.000
    O65     O    0.45368   0.17229   0.68890   1.000
    O66     O    0.55802   0.44066   0.86500   1.000
    O67     O    0.69188   0.51391   0.82942   1.000
    O68     O    0.34569   0.05503   0.45188   1.000
    O69     O    0.30435   0.17981   0.53110   1.000
    O70     O    0.03244   0.36480   0.43824   1.000
    O71     O    0.95451   0.33173   0.31133   1.000
    O72     O    0.05397   0.06635   0.13092   1.000
    O73     O    0.18667   0.99156   0.16413   1.000
    O74     O    0.15219   0.94528   0.95304   1.000
    O75     O    0.19745   0.82268   0.03560   1.000
    O76     O    0.46841   0.63722   0.94048   1.000
    O77     O    0.54326   0.67189   0.81253   1.000
    O78     O    0.44079   0.93822   0.63313   1.000
    O79     O    0.30818   0.01267   0.66698   1.000
loop_
    _geom_bond_atom_site_label_1
    _geom_bond_atom_site_label_2
    _geom_bond_distance
    _geom_bond_site_symmetry_2
    _ccdc_geom_bond_type
    H7     C20       1.08797      .   S
    C25    O56       1.29321      .   S
    C25    C19       1.48917      .   S
    C25    O57       1.27058  1_554   S
    O75    Zn6       2.11971      .   S
    O75    C53       1.27060  1_554   S
    O56    Zn32      1.93818  1_554   S
    Zn5    O58       1.95215  1_455   S
    Zn5    O72       1.96659  1_565   S
    Zn5    O74       1.93981  1_554   S
    O58    C26       1.28934      .   S
    C20    C19       1.40036      .   S
    C20    C21       1.39973      .   S
    C19    C24       1.39919      .   S
    O72    C46       1.29085      .   S
    C26    C21       1.49076      .   S
    C26    O59       1.27251  1_655   S
    C21    C22       1.40006      .   S
    O73    Zn6       2.15574      .   S
    O73    C46       1.27815  1_565   S
    Zn6    O59       2.09457      .   S
    C24    H9        1.08794      .   S
    C24    C23       1.40043      .   S
    C46    C42       1.48332      .   S
    C22    C23       1.40041      .   S
    C22    H8        1.08799      .   S
    H14    C41       1.08811      .   S
    C23    C27       1.48402      .   S
    C42    C41       1.40036      .   S
    C42    C43       1.40112      .   S
    C41    C40       1.39933      .   S
    H15    C43       1.08813      .   S
    O71    Zn2       2.12068      .   S
    O71    C45       1.27210  1_655   S
    C27    O61       1.27716      .   S
    C27    O60       1.29125      .   S
    C43    C38       1.40013      .   S
    Zn2    O61       2.12998      .   S
    Zn2    O63       2.13008      .   S
    C40    C45       1.49059      .   S
    C40    C39       1.40025      .   S
    O60    Zn1       1.95369      .   S
    C45    O70       1.29036      .   S
    C38    C39       1.40075      .   S
    C38    C44       1.49013      .   S
    C39    H13       1.08790      .   S
    O70    Zn1       1.94710  1_455   S
    Zn1    O62       1.94057      .   S
    O68    C44       1.29314      .   S
    O68    Zn3       1.94308      .   S
    C44    O69       1.27060      .   S
    O63    C35       1.27110      .   S
    H10    C29       1.08799      .   S
    O69    Zn4       2.12559      .   S
    C35    O62       1.29336      .   S
    C35    C28       1.48941      .   S
    Zn3    O64       1.95023      .   S
    Zn3    O78       1.96003  1_545   S
    O64    C36       1.28998      .   S
    C29    C28       1.40012      .   S
    C29    C30       1.40007      .   S
    C28    C34       1.39997      .   S
    C36    C30       1.49083      .   S
    C36    O65       1.27245      .   S
    O78    C55       1.29051      .   S
    C30    C31       1.40052      .   S
    O79    Zn4       2.14769      .   S
    O79    C55       1.27611  1_545   S
    Zn4    O65       2.09618      .   S
    C34    H12       1.08793      .   S
    C34    C33       1.40065      .   S
    C55    C51       1.48541      .   S
    C31    C33       1.40055      .   S
    C31    H11       1.08730      .   S
    H17    C50       1.08798      .   S
    C33    C37       1.48601      .   S
    C51    C50       1.40017      .   S
    C51    C52       1.40053      .   S
    C50    C49       1.39988      .   S
    H18    C52       1.08809      .   S
    O77    Zn0       2.11967      .   S
    O77    C54       1.27172      .   S
    C37    O67       1.27468      .   S
    C37    O66       1.29232      .   S
    C52    C47       1.39986      .   S
    Zn0    O67       2.13130      .   S
    Zn0    O57       2.11135      .   S
    C49    C54       1.49069      .   S
    C49    C48       1.40043      .   S
    O66    Zn32      1.95143      .   S
    C54    O76       1.29148      .   S
    C47    C48       1.40086      .   S
    C47    C53       1.49060      .   S
    C48    H16       1.07828      .   S
    O76    Zn32      1.94416      .   S
    O74    C53       1.29311      .   S
