# CIF file generated by openbabel 2.4.90, see http://openbabel.sf.net
data_I
_chemical_name_common ''
_cell_length_a 14.239
_cell_length_b 14.542
_cell_length_c 15.068
_cell_angle_alpha 89.691
_cell_angle_beta 90.222
_cell_angle_gamma 90.189
_space_group_name_H-M_alt 'P 1'
_space_group_name_Hall 'P 1'
loop_
    _symmetry_equiv_pos_as_xyz
    x,y,z
loop_
    _atom_site_label
    _atom_site_type_symbol
    _atom_site_fract_x
    _atom_site_fract_y
    _atom_site_fract_z
    _atom_site_occupancy
    Zr0     Zr   0.56481   0.54309   0.94793   1.000
    Zr1     Zr   0.69105   0.66043   0.82545   1.000
    Zr2     Zr   0.93441   0.45719   0.44800   1.000
    Zr3     Zr   0.80696   0.34317   0.32602   1.000
    Zr4     Zr   0.43229   0.04305   0.55122   1.000
    Zr5     Zr   0.30810   0.16027   0.67097   1.000
    Zr6     Zr   0.06568   0.96061   0.05095   1.000
    Zr7     Zr   0.18983   0.84369   0.17448   1.000
    N8      N    0.85112   0.66569   0.16081   1.000
    O9      O    0.82916   0.54100   0.24509   1.000
    O10     O    0.73035   0.60748   0.07848   1.000
    O11     O    0.89469   0.58765   0.28408   1.000
    O12     O    0.93390   0.78979   0.10874   1.000
    O13     O    0.98406   0.75160   0.17145   1.000
    O14     O    0.77305   0.66794   0.02777   1.000
    N15     N    0.14763   0.16625   0.33710   1.000
    O16     O    0.06553   0.28862   0.39011   1.000
    O17     O    0.26831   0.10765   0.41932   1.000
    O18     O    0.10373   0.08986   0.21402   1.000
    O19     O    0.01418   0.25185   0.32789   1.000
    O20     O    0.16794   0.04194   0.25320   1.000
    O21     O    0.22693   0.16815   0.46907   1.000
    N22     N    0.64858   0.33631   0.66062   1.000
    O23     O    0.56496   0.21296   0.60879   1.000
    O24     O    0.72662   0.33411   0.52825   1.000
    O25     O    0.67002   0.46174   0.74403   1.000
    O26     O    0.51473   0.25130   0.67028   1.000
    O27     O    0.76977   0.39347   0.57886   1.000
    O28     O    0.60500   0.41409   0.78354   1.000
    N29     N    0.35046   0.83669   0.83971   1.000
    O30     O    0.27205   0.83494   0.97237   1.000
    O31     O    0.39350   0.91366   0.71594   1.000
    O32     O    0.48380   0.75142   0.82935   1.000
    O33     O    0.43354   0.71342   0.89196   1.000
    O34     O    0.22970   0.89481   0.92085   1.000
    O35     O    0.32930   0.96158   0.75434   1.000
loop_
    _geom_bond_atom_site_label_1
    _geom_bond_atom_site_label_2
    _geom_bond_distance
    _geom_bond_site_symmetry_2
    _ccdc_geom_bond_type
    N8     O9        2.22998      .   S
    Zr3    O9        3.13401      .   S
    N8     O10       2.27988      .   S
    Zr0    O10       3.20493  1_556   S
    N8     O11       2.25742      .   S
    Zr2    O11       3.15679      .   S
    N8     O12       2.28896      .   S
    Zr6    O12       3.22624  1_455   S
    N8     O13       2.27018      .   S
    Zr7    O13       3.21772  1_455   S
    N8     O14       2.28855      .   S
    Zr1    O14       3.26258  1_556   S
    N15    O16       2.28206      .   S
    Zr2    O16       3.21269  1_655   S
    N15    O17       2.27943      .   S
    Zr4    O17       3.20032      .   S
    N15    O18       2.25229      .   S
    Zr6    O18       3.14589  1_565   S
    N15    O19       2.27843      .   S
    Zr3    O19       3.23974  1_655   S
    N15    O20       2.23173      .   S
    Zr7    O20       3.14023  1_565   S
    N15    O21       2.28316      .   S
    Zr5    O21       3.25183      .   S
    N22    O23       2.28886      .   S
    Zr4    O23       3.22580      .   S
    N22    O24       2.28743      .   S
    Zr3    O24       3.26081      .   S
    N22    O25       2.24007      .   S
    Zr1    O25       3.15801      .   S
    N22    O26       2.27294      .   S
    Zr5    O26       3.22229      .   S
    N22    O27       2.27656      .   S
    Zr2    O27       3.20064      .   S
    N22    O28       2.26522      .   S
    Zr0    O28       3.17021      .   S
    N29    O30       2.29342      .   S
    Zr7    O30       3.27014  1_554   S
    N29    O31       2.25571      .   S
    Zr4    O31       3.15583  1_545   S
    N29    O32       2.27744      .   S
    Zr1    O32       3.23886      .   S
    N29    O33       2.28557      .   S
    Zr0    O33       3.21502      .   S
    N29    O34       2.28107      .   S
    Zr6    O34       3.20669  1_554   S
    N29    O35       2.24035      .   S
    Zr5    O35       3.15938  1_545   S
