# CIF file generated by openbabel 2.4.90, see http://openbabel.sf.net
data_I
_chemical_name_common ''
_cell_length_a 13.19
_cell_length_b 13.947
_cell_length_c 16.988
_cell_angle_alpha 89.974
_cell_angle_beta 89.987
_cell_angle_gamma 90.126
_space_group_name_H-M_alt 'P 1'
_space_group_name_Hall 'P 1'
loop_
    _symmetry_equiv_pos_as_xyz
    x,y,z
loop_
    _atom_site_label
    _atom_site_type_symbol
    _atom_site_fract_x
    _atom_site_fract_y
    _atom_site_fract_z
    _atom_site_occupancy
    Zn0     Zn   0.42577   0.48013   0.09327   1.000
    Zn1     Zn   0.52396   0.09161   0.92687   1.000
    Zn2     Zn   0.57425   0.02004   0.59333   1.000
    Zn3     Zn   0.97756   0.59143   0.07306   1.000
    Zn4     Zn   0.92448   0.51973   0.40670   1.000
    Zn5     Zn   0.02242   0.90860   0.57308   1.000
    Zn6     Zn   0.07545   0.98055   0.90669   1.000
    Zn7     Zn   0.52362   0.59165   0.57316   1.000
    Zn8     Zn   0.57436   0.52038   0.90600   1.000
    Zn9     Zn   0.47604   0.90855   0.07314   1.000
    Zn10    Zn   0.42586   0.98019   0.40672   1.000
    Zn11    Zn   0.02243   0.40862   0.92692   1.000
    Zn12    Zn   0.07532   0.48054   0.59326   1.000
    Zn13    Zn   0.97758   0.09149   0.42690   1.000
    Zn14    Zn   0.92453   0.01961   0.09329   1.000
    H15     H    0.23986   0.36157   0.49164   1.000
    H16     H    0.44167   0.19922   0.34800   1.000
    H17     H    0.34919   0.65038   0.66605   1.000
    H18     H    0.22608   0.61206   0.68206   1.000
    H19     H    0.56269   0.22958   0.63843   1.000
    H20     H    0.56675   0.33892   0.59106   1.000
    H21     H    0.75996   0.13861   0.99179   1.000
    H22     H    0.55929   0.30122   0.84863   1.000
    H23     H    0.65016   0.84982   0.16638   1.000
    H24     H    0.77322   0.88826   0.18265   1.000
    H25     H    0.43702   0.27124   0.13809   1.000
    H26     H    0.43322   0.16173   0.09123   1.000
    H27     H    0.74031   0.63886   0.00000   1.000
    H28     H    0.94053   0.80061   0.15110   1.000
    H29     H    0.84833   0.35091   0.83350   1.000
    H30     H    0.72561   0.38957   0.81727   1.000
    H31     H    0.06489   0.77170   0.86220   1.000
    Zn32    Zn   0.47601   0.40859   0.42682   1.000
    H33     H    0.06806   0.66220   0.90896   1.000
    H34     H    0.25992   0.86153   0.50903   1.000
    H35     H    0.05891   0.69946   0.65123   1.000
    H36     H    0.15186   0.14980   0.33380   1.000
    H37     H    0.27487   0.11168   0.31792   1.000
    H38     H    0.93534   0.72848   0.36214   1.000
    H39     H    0.93202   0.83799   0.40882   1.000
    H40     H    0.75962   0.63891   0.50773   1.000
    H41     H    0.55863   0.80101   0.65136   1.000
    H42     H    0.65031   0.34976   0.33360   1.000
    H43     H    0.77337   0.38816   0.31742   1.000
    H44     H    0.43714   0.77116   0.36172   1.000
    H45     H    0.43326   0.66160   0.40864   1.000
    H46     H    0.24000   0.86175   0.00000   1.000
    H47     H    0.44099   0.69920   0.15133   1.000
    H48     H    0.34980   0.15042   0.83363   1.000
    H49     H    0.22674   0.11197   0.81737   1.000
    H50     H    0.56301   0.72946   0.86195   1.000
    H51     H    0.56718   0.83879   0.90893   1.000
    H52     H    0.25988   0.36148   0.99099   1.000
    H53     H    0.05930   0.19951   0.84885   1.000
    H54     H    0.15170   0.64962   0.16609   1.000
    H55     H    0.27469   0.61146   0.18209   1.000
    H56     H    0.93513   0.22837   0.13781   1.000
    H57     H    0.93191   0.33790   0.09109   1.000
    H58     H    0.74021   0.13878   0.49105   1.000
    H59     H    0.94068   0.30075   0.34870   1.000
    H60     H    0.84821   0.85051   0.66623   1.000
    H61     H    0.72521   0.88867   0.68218   1.000
    H62     H    0.06474   0.27170   0.63770   1.000
    H63     H    0.06801   0.16223   0.59100   1.000
    C64     C    0.42128   0.51599   0.27984   1.000
    C65     C    0.46329   0.41647   0.25631   1.000
    C66     C    0.29983   0.54712   0.59240   1.000
    C67     C    0.27547   0.42272   0.51987   1.000
    C68     C    0.53059   0.22039   0.52300   1.000
    C69     C    0.47044   0.19074   0.40791   1.000
    C70     C    0.57863   0.98411   0.77992   1.000
    C71     C    0.53667   0.08365   0.75636   1.000
    C72     C    0.69972   0.95324   0.09279   1.000
    C73     C    0.72429   0.07749   0.02007   1.000
    C74     C    0.46963   0.28010   0.02276   1.000
    C75     C    0.53024   0.30971   0.90777   1.000
    C76     C    0.92143   0.48376   0.21983   1.000
    C77     C    0.96343   0.58335   0.24363   1.000
    C78     C    0.79920   0.45381   0.90700   1.000
    C79     C    0.77555   0.57778   0.98049   1.000
    C80     C    0.03153   0.78029   0.97734   1.000
    C81     C    0.96990   0.80935   0.09206   1.000
    C82     C    0.07856   0.01632   0.71986   1.000
    C83     C    0.03658   0.91673   0.74369   1.000
    C84     C    0.20094   0.04677   0.40778   1.000
    C85     C    0.22463   0.92263   0.48064   1.000
    C86     C    0.96841   0.71988   0.47733   1.000
    C87     C    0.02969   0.69075   0.59215   1.000
    C88     C    0.57854   0.48656   0.72008   1.000
    C89     C    0.53475   0.58507   0.74390   1.000
    C90     C    0.69972   0.45327   0.40710   1.000
    C91     C    0.72403   0.57773   0.47954   1.000
    C92     C    0.46963   0.77995   0.47705   1.000
    C93     C    0.52989   0.80950   0.59214   1.000
    C94     C    0.42136   0.01608   0.22015   1.000
    C95     C    0.46332   0.91654   0.24368   1.000
    C96     C    0.30023   0.04707   0.90726   1.000
    C97     C    0.27567   0.92285   0.98002   1.000
    C98     C    0.53079   0.72036   0.97725   1.000
    C99     C    0.47005   0.69073   0.09220   1.000
    O100    O    0.41825   0.03299   0.14682   1.000
    O101    O    0.03072   0.39562   0.68377   1.000
    O102    O    0.10636   0.57014   0.72438   1.000
    O103    O    0.00000   0.35979   0.81051   1.000
    C104    C    0.07851   0.51628   0.78010   1.000
    C105    C    0.03655   0.41668   0.75631   1.000
    C106    C    0.20087   0.54665   0.09221   1.000
    C107    C    0.22459   0.42256   0.01936   1.000
    C108    C    0.96843   0.21983   0.02266   1.000
    C109    C    0.02997   0.19078   0.90791   1.000
    C110    C    0.92143   0.98375   0.28017   1.000
    C111    C    0.96341   0.08334   0.25633   1.000
    C112    C    0.79913   0.95352   0.59200   1.000
    C113    C    0.77547   0.07767   0.51943   1.000
    C114    C    0.03146   0.28034   0.52259   1.000
    C115    C    0.96996   0.30944   0.40785   1.000
    N116    N    0.22733   0.48129   0.57182   1.000
    N117    N    0.37091   0.44872   0.50800   1.000
    N118    N    0.38735   0.52961   0.55427   1.000
    N119    N    0.28444   0.62189   0.64248   1.000
    N120    N    0.48495   0.10597   0.44144   1.000
    N121    N    0.52433   0.12383   0.51630   1.000
    N122    N    0.49716   0.26437   0.45582   1.000
    N123    N    0.57099   0.26582   0.58637   1.000
    N124    N    0.77232   0.01897   0.07215   1.000
    N125    N    0.62886   0.05151   0.00825   1.000
    N126    N    0.61229   0.97071   0.05456   1.000
    N127    N    0.71492   0.87854   0.14300   1.000
    N128    N    0.51558   0.39449   0.94120   1.000
    N129    N    0.47592   0.37666   0.01600   1.000
    N130    N    0.50333   0.23607   0.95568   1.000
    N131    N    0.42898   0.23483   0.08611   1.000
    N132    N    0.72707   0.51968   0.92818   1.000
    N133    N    0.87077   0.55142   0.99242   1.000
    N134    N    0.88667   0.47075   0.94593   1.000
    N135    N    0.78364   0.37938   0.85700   1.000
    N136    N    0.98435   0.89428   0.05866   1.000
    N137    N    0.02473   0.87681   0.98403   1.000
    N138    N    0.99757   0.73597   0.04431   1.000
    N139    N    0.07285   0.73529   0.91420   1.000
    N140    N    0.27316   0.98098   0.42848   1.000
    N141    N    0.12932   0.94875   0.49246   1.000
    N142    N    0.11338   0.02953   0.44605   1.000
    N143    N    0.21649   0.12141   0.35745   1.000
    N144    N    0.01531   0.60584   0.55876   1.000
    N145    N    0.97515   0.62336   0.48407   1.000
    N146    N    0.00218   0.76417   0.54434   1.000
    N147    N    0.92729   0.76490   0.41410   1.000
    N148    N    0.77224   0.51908   0.42767   1.000
    N149    N    0.62858   0.55177   0.49132   1.000
    N150    N    0.61219   0.47082   0.44520   1.000
    N151    N    0.71504   0.37845   0.35704   1.000
    N152    N    0.51531   0.89430   0.55868   1.000
    N153    N    0.47587   0.87651   0.48380   1.000
    N154    N    0.50318   0.73591   0.54420   1.000
    N155    N    0.42910   0.73470   0.41370   1.000
    N156    N    0.22763   0.98135   0.92793   1.000
    N157    N    0.37110   0.94884   0.99180   1.000
    N158    N    0.38766   0.02963   0.94551   1.000
    N159    N    0.28503   0.12175   0.85000   1.000
    N160    N    0.48473   0.60596   0.05875   1.000
    N161    N    0.52449   0.62381   0.98400   1.000
    N162    N    0.49702   0.76436   0.04431   1.000
    N163    N    0.57155   0.76569   0.91396   1.000
    N164    N    0.27308   0.48084   0.07154   1.000
    N165    N    0.12930   0.44873   0.00751   1.000
    N166    N    0.11335   0.52947   0.05391   1.000
    N167    N    0.21637   0.62123   0.14250   1.000
    N168    N    0.01555   0.10584   0.94131   1.000
    N169    N    0.97523   0.12332   0.01596   1.000
    N170    N    0.00234   0.26416   0.95568   1.000
    N171    N    0.92714   0.26481   0.08582   1.000
    N172    N    0.72694   0.01936   0.57162   1.000
    N173    N    0.87075   0.05147   0.50757   1.000
    N174    N    0.88667   0.97070   0.55398   1.000
    N175    N    0.78357   0.87891   0.64265   1.000
    N176    N    0.98428   0.39436   0.44126   1.000
    N177    N    0.02457   0.37684   0.51591   1.000
    N178    N    0.99765   0.23603   0.45560   1.000
    N179    N    0.07277   0.23532   0.58574   1.000
    O180    O    0.47093   0.39573   0.18380   1.000
    O181    O    0.39490   0.56998   0.22386   1.000
    O182    O    0.48903   0.35929   0.31068   1.000
    O183    O    0.41824   0.53289   0.35316   1.000
    O184    O    0.52905   0.10440   0.68384   1.000
    O185    O    0.60499   0.93012   0.72397   1.000
    O186    O    0.51096   0.14085   0.81070   1.000
    O187    O    0.58169   0.96722   0.85325   1.000
    O188    O    0.96927   0.60440   0.31610   1.000
    O189    O    0.89347   0.42991   0.27551   1.000
    O190    O    0.99087   0.64025   0.18940   1.000
    O191    O    0.91997   0.46675   0.14649   1.000
    O192    O    0.03075   0.89564   0.81624   1.000
    O193    O    0.10653   0.07012   0.77550   1.000
    O194    O    0.00000   0.85990   0.68952   1.000
    O195    O    0.08004   0.03336   0.64653   1.000
    O196    O    0.52807   0.60539   0.81660   1.000
    O197    O    0.60561   0.43257   0.77582   1.000
    O198    O    0.50691   0.64156   0.68979   1.000
    O199    O    0.58219   0.47026   0.64664   1.000
    O200    O    0.47097   0.89577   0.31619   1.000
    O201    O    0.39507   0.07007   0.27614   1.000
    O202    O    0.48904   0.85938   0.18932   1.000
    O203    O    0.08002   0.53328   0.85343   1.000
    O204    O    0.96925   0.10441   0.18377   1.000
    O205    O    0.89346   0.92994   0.22450   1.000
    O206    O    0.99086   0.14023   0.31048   1.000
    O207    O    0.91998   0.96671   0.35351   1.000
loop_
    _geom_bond_atom_site_label_1
    _geom_bond_atom_site_label_2
    _geom_bond_distance
    _geom_bond_site_symmetry_2
    _ccdc_geom_bond_type
    H27    C79       1.02649  1_554   S
    H46    C97       1.02988  1_554   S
    N165   C107      1.32497      .   S
    N165   N166      1.39120      .   S
    N165   Zn11      2.04265  1_554   S
    N125   C73       1.32444      .   S
    N125   N126      1.39092  1_545   S
    N125   Zn1       2.03522  1_554   S
    N169   C108      1.35405      .   S
    N169   Zn14      2.06368      .   S
    N169   N168      1.39677  1_654   S
    N129   C74       1.35392      .   S
    N129   Zn0       2.06121      .   S
    N129   N128      1.39608  1_554   S
    C107   N164      1.36165      .   S
    C107   H52       1.08479  1_554   S
    C73    N124      1.36096      .   S
    C73    H21       1.08468  1_554   S
    C108   N171      1.35768      .   S
    C108   N170      1.36926  1_654   S
    C74    N131      1.35719      .   S
    C74    N130      1.36925  1_554   S
    N162   Zn9       2.08904      .   S
    N162   C99       1.35662      .   S
    N162   C98       1.36905  1_554   S
    N138   Zn3       2.09005      .   S
    N138   C81       1.35676      .   S
    N138   C80       1.36933  1_654   S
    N166   Zn3       2.01680  1_455   S
    N166   C106      1.34632      .   S
    N126   Zn9       2.01839      .   S
    N126   C72       1.34629      .   S
    N136   C81       1.32663      .   S
    N136   Zn14      2.00771  1_565   S
    N136   N137      1.39679  1_654   S
    N160   C99       1.32652      .   S
    N160   Zn0       2.00539      .   S
    N160   N161      1.39583  1_554   S
    N164   C106      1.37005      .   S
    N164   Zn0       2.04772      .   S
    N124   C72       1.36976  1_545   S
    N124   Zn14      2.03951      .   S
    Zn3    O191      2.26909      .   S
    Zn3    O190      2.09792      .   S
    Zn3    N133      2.04212  1_554   S
    Zn9    O100      2.27316  1_565   S
    Zn9    O202      2.09631      .   S
    Zn9    N157      2.03584  1_554   S
    N171   H57       1.02515      .   S
    N171   H56       1.02436      .   S
    N131   H26       1.02475      .   S
    N131   H25       1.02427      .   S
    C81    H28       1.08185      .   S
    C99    H47       1.08167      .   S
    C106   N167      1.36146      .   S
    C72    N127      1.36135      .   S
    Zn0    O180      2.02664      .   S
    Zn14   O204      2.02685      .   S
    N167   H54       1.02290      .   S
    N167   H55       1.03119      .   S
    N127   H23       1.02277      .   S
    N127   H24       1.03112      .   S
    O191   C76       1.26853      .   S
    O100   C94       1.26843      .   S
    O204   C111      1.26933      .   S
    O180   C65       1.26947      .   S
    O202   C95       1.26696      .   S
    O190   C77       1.26789      .   S
    C76    O189      1.26203      .   S
    C94    O201      1.26237      .   S
    O181   C64       1.26221      .   S
    O205   C110      1.26228      .   S
    C77    O188      1.26812      .   S
    C95    O200      1.26937      .   S
    C65    O182      1.26690      .   S
    C111   O206      1.26740      .   S
    C64    O183      1.26843      .   S
    C110   O207      1.26839      .   S
    O206   Zn13      2.09815      .   S
    O182   Zn32      2.09680      .   S
    O188   Zn4       2.02666      .   S
    O200   Zn10      2.02726      .   S
    H43    N151      1.03083      .   S
    H37    N143      1.03081      .   S
    H42    N151      1.02295      .   S
    H36    N143      1.02298      .   S
    H16    C69       1.09270      .   S
    H59    C115      1.08334      .   S
    O183   Zn32      2.27069      .   S
    O207   Zn13      2.27095  1_565   S
    N151   C90       1.36183      .   S
    N143   C84       1.36193      .   S
    H44    N155      1.02417      .   S
    H38    N147      1.02419      .   S
    Zn4    N148      2.03933      .   S
    Zn4    N176      2.00737      .   S
    Zn4    N145      2.06426      .   S
    Zn10   N140      2.04765      .   S
    Zn10   N120      2.00697  1_565   S
    Zn10   N153      2.05998      .   S
    C90    N148      1.36975      .   S
    C90    N150      1.34638      .   S
    C84    N140      1.37005  1_545   S
    C84    N142      1.34638      .   S
    C115   N176      1.32665      .   S
    C115   N178      1.35671      .   S
    C69    N120      1.32644      .   S
    C69    N122      1.35663      .   S
    H45    N155      1.02475      .   S
    H39    N147      1.02513      .   S
    N155   C92       1.35703      .   S
    N147   C86       1.35769      .   S
    Zn32   N150      2.01772      .   S
    Zn32   N122      2.09003      .   S
    Zn32   N117      2.03468      .   S
    Zn13   N142      2.01683  1_655   S
    Zn13   N178      2.09051      .   S
    Zn13   N173      2.04207      .   S
    N148   C91       1.36111      .   S
    N140   C85       1.36161      .   S
    N176   N177      1.39676  1_655   S
    N120   N121      1.39611      .   S
    N150   N149      1.39104      .   S
    N142   N141      1.39116  1_545   S
    N178   C114      1.36947  1_655   S
    N122   C68       1.36892      .   S
    C92    N153      1.35402      .   S
    C92    N154      1.36940      .   S
    C86    N145      1.35403      .   S
    C86    N146      1.36950  1_655   S
    C91    N149      1.32435      .   S
    C91    H40       1.08476      .   S
    C85    N141      1.32500      .   S
    C85    H34       1.08483      .   S
    N153   N152      1.39655      .   S
    N145   N144      1.39674  1_655   S
    H58    C113      1.08475      .   S
    N149   Zn7       2.04018      .   S
    H15    C67       1.08467      .   S
    N141   Zn5       2.04259      .   S
    N173   C113      1.32499      .   S
    N173   N174      1.39108  1_545   S
    N117   C67       1.32466      .   S
    N117   N118      1.39194      .   S
    N177   C114      1.35399      .   S
    N177   Zn12      2.06497      .   S
    N121   C68       1.35387      .   S
    N121   Zn2       2.06017      .   S
    C113   N172      1.36157      .   S
    C67    N116      1.36088      .   S
    C114   N179      1.35764      .   S
    C68    N123      1.35785      .   S
    N154   Zn7       2.08906      .   S
    N154   C93       1.35652      .   S
    N146   Zn5       2.08945      .   S
    N146   C87       1.35676      .   S
    N174   Zn5       2.01700  1_655   S
    N174   C112      1.34394      .   S
    N118   Zn7       2.01889      .   S
    N118   C66       1.34643      .   S
    N152   C93       1.32643      .   S
    N152   Zn2       2.00534  1_565   S
    N144   C87       1.32660      .   S
    N144   Zn12      2.00738      .   S
    N172   C112      1.36879  1_545   S
    N172   Zn2       2.04743      .   S
    N116   C66       1.36980      .   S
    N116   Zn12      2.03772      .   S
    Zn5    O195      2.27125  1_565   S
    Zn5    O194      2.11171      .   S
    Zn7    O199      2.24179      .   S
    Zn7    O198      2.11197      .   S
    N179   H63       1.02507      .   S
    N179   H62       1.02391      .   S
    N123   H20       1.02428      .   S
    N123   H19       1.02415      .   S
    C112   N175      1.36507      .   S
    C93    H41       1.08170      .   S
    C87    H35       1.08197      .   S
    C66    N119      1.36166      .   S
    Zn12   O101      2.02676      .   S
    Zn2    O184      2.02688      .   S
    N119   H17       1.02298      .   S
    N119   H18       1.03079      .   S
    N175   H60       1.02261      .   S
    N175   H61       1.03070      .   S
    O195   C82       1.26822      .   S
    O199   C88       1.26917      .   S
    O101   C105      1.26928      .   S
    O184   C71       1.26943      .   S
    O194   C83       1.30657      .   S
    O198   C89       1.26546      .   S
    C82    O193      1.26176      .   S
    C88    O197      1.26165      .   S
    O185   C70       1.26213      .   S
    O102   C104      1.26223      .   S
    C83    O192      1.26925      .   S
    C89    O196      1.27033      .   S
    C105   O103      1.30664      .   S
    C71    O186      1.26702      .   S
    C70    O187      1.26839      .   S
    C104   O203      1.26836      .   S
    O103   Zn11      2.11250      .   S
    O186   Zn1       2.09647      .   S
    O192   Zn6       2.02734      .   S
    O196   Zn8       2.02162      .   S
    H30    N135      1.03063      .   S
    H49    N159      0.95743      .   S
    H29    N135      1.02298      .   S
    H48    N159      0.98254      .   S
    H22    C75       1.08184      .   S
    H53    C109      1.08196      .   S
    N159   C96       1.43915      .   S
    O187   Zn1       2.27188  1_565   S
    O203   Zn11      2.26950      .   S
    N135   C78       1.35685      .   S
    H50    N163      1.02419      .   S
    H31    N139      1.02433      .   S
    Zn8    N132      2.04927      .   S
    Zn8    N128      2.00857      .   S
    Zn8    N161      2.06762      .   S
    Zn6    N156      2.03958      .   S
    Zn6    N168      2.00762  1_565   S
    Zn6    N137      2.06419      .   S
    C78    N132      1.37211      .   S
    C78    N134      1.35041      .   S
    C96    N156      1.36976  1_545   S
    C96    N158      1.34640      .   S
    C75    N128      1.32649      .   S
    C75    N130      1.35680      .   S
    C109   N168      1.32654      .   S
    C109   N170      1.35683      .   S
    H51    N163      1.02477      .   S
    H33    N139      1.02509      .   S
    N163   C98       1.35733      .   S
    N139   C80       1.35772      .   S
    Zn1    N158      2.01805      .   S
    Zn1    N130      2.09184      .   S
    Zn11   N134      2.01708  1_455   S
    Zn11   N170      2.08925      .   S
    N156   C97       1.36086      .   S
    N132   C79       1.36157      .   S
    N158   N157      1.39058  1_545   S
    N134   N133      1.39115      .   S
    C98    N161      1.35382      .   S
    C80    N137      1.35412      .   S
    C97    N157      1.32432      .   S
    C79    N133      1.32496      .   S
