# CIF file generated by openbabel 2.4.90, see http://openbabel.sf.net
data_I
_chemical_name_common ''
_cell_length_a 13.19
_cell_length_b 13.947
_cell_length_c 16.988
_cell_angle_alpha 89.974
_cell_angle_beta 89.987
_cell_angle_gamma 90.126
_space_group_name_H-M_alt 'P 1'
_space_group_name_Hall 'P 1'
loop_
    _symmetry_equiv_pos_as_xyz
    x,y,z
loop_
    _atom_site_label
    _atom_site_type_symbol
    _atom_site_fract_x
    _atom_site_fract_y
    _atom_site_fract_z
    _atom_site_occupancy
    Zr0     Zr   0.47601   0.40859   0.42682   1.000
    Zr1     Zr   0.42577   0.48013   0.09327   1.000
    Zr2     Zr   0.52396   0.09161   0.92687   1.000
    Zr3     Zr   0.57425   0.02004   0.59333   1.000
    Zr4     Zr   0.97756   0.59143   0.07306   1.000
    Zr5     Zr   0.92448   0.51973   0.40670   1.000
    Zr6     Zr   0.02242   0.90860   0.57308   1.000
    Zr7     Zr   0.07545   0.98055   0.90669   1.000
    Zr8     Zr   0.52362   0.59165   0.57316   1.000
    Zr9     Zr   0.57436   0.52038   0.90600   1.000
    Zr10    Zr   0.47604   0.90855   0.07314   1.000
    Zr11    Zr   0.42586   0.98019   0.40672   1.000
    Zr12    Zr   0.02243   0.40862   0.92692   1.000
    Zr13    Zr   0.07532   0.48054   0.59326   1.000
    Zr14    Zr   0.97758   0.09149   0.42690   1.000
    Zr15    Zr   0.92453   0.01961   0.09329   1.000
    C16     C    0.44228   0.46623   0.26807   1.000
    C17     C    0.94242   0.03355   0.26825   1.000
    C18     C    0.05753   0.46648   0.76820   1.000
    C19     C    0.55765   0.03388   0.76814   1.000
    C20     C    0.05757   0.96653   0.73177   1.000
    C21     C    0.94243   0.53355   0.23173   1.000
    C22     C    0.44234   0.96631   0.23191   1.000
    C23     C    0.55665   0.53581   0.73199   1.000
    C24     C    0.51662   0.21543   0.50093   1.000
    O25     O    0.53295   0.14368   0.52787   1.000
    O26     O    0.48601   0.12925   0.46250   1.000
    O27     O    0.50160   0.27595   0.47112   1.000
    C28     C    0.20495   0.01923   0.41929   1.000
    O29     O    0.14041   0.97395   0.47603   1.000
    O30     O    0.27723   0.99991   0.41844   1.000
    O31     O    0.12522   0.03987   0.42788   1.000
    C32     C    0.47444   0.89056   0.24973   1.000
    O33     O    0.47849   0.88726   0.19048   1.000
    O34     O    0.46364   0.91599   0.24376   1.000
    O35     O    0.46143   0.91427   0.30559   1.000
    C36     C    0.48369   0.28512   0.00083   1.000
    O37     O    0.46727   0.35675   0.02773   1.000
    O38     O    0.51433   0.37127   0.96221   1.000
    O39     O    0.49867   0.22448   0.97105   1.000
    C40     C    0.98278   0.21495   0.00079   1.000
    O41     O    0.01414   0.12907   0.96239   1.000
    O42     O    0.96633   0.14321   0.02771   1.000
    O43     O    0.99758   0.27567   0.97104   1.000
    C44     C    0.48356   0.78496   0.49903   1.000
    O45     O    0.49848   0.72437   0.52886   1.000
    O46     O    0.51417   0.87107   0.53752   1.000
    O47     O    0.46721   0.85665   0.47215   1.000
    C48     C    0.51664   0.71537   0.99919   1.000
    O49     O    0.48595   0.62921   0.03760   1.000
    O50     O    0.53303   0.64373   0.97209   1.000
    O51     O    0.50159   0.77591   0.02896   1.000
    C52     C    0.29561   0.51948   0.58095   1.000
    O53     O    0.22347   0.50020   0.58175   1.000
    O54     O    0.37555   0.54006   0.57233   1.000
    O55     O    0.35953   0.47407   0.52418   1.000
    C56     C    0.79524   0.48135   0.91798   1.000
    O57     O    0.72298   0.50069   0.91753   1.000
    O58     O    0.87490   0.46052   0.92720   1.000
    O59     O    0.85970   0.52639   0.97536   1.000
    C60     C    0.98270   0.71498   0.49922   1.000
    O61     O    0.99750   0.77568   0.52896   1.000
    O62     O    0.01401   0.62909   0.53761   1.000
    O63     O    0.96626   0.64327   0.47230   1.000
    C64     C    0.91162   0.96013   0.28606   1.000
    O65     O    0.93020   0.99462   0.33813   1.000
    O66     O    0.92177   0.98439   0.28013   1.000
    C67     C    0.41148   0.53962   0.28562   1.000
    O68     O    0.42163   0.51536   0.27979   1.000
    O69     O    0.42930   0.50518   0.33780   1.000
    C70     C    0.29598   0.01951   0.91706   1.000
    O71     O    0.35977   0.97410   0.97476   1.000
    O72     O    0.37590   0.04007   0.92662   1.000
    O73     O    0.22376   0.00023   0.91718   1.000
    C74     C    0.97451   0.10933   0.25019   1.000
    O75     O    0.97936   0.11259   0.30944   1.000
    O76     O    0.96371   0.08389   0.25624   1.000
    O77     O    0.96070   0.08567   0.19436   1.000
    C78     C    0.01716   0.78517   0.99921   1.000
    O79     O    0.03362   0.85692   0.97228   1.000
    O80     O    0.00236   0.72443   0.02895   1.000
    O81     O    0.98580   0.87106   0.03759   1.000
    C82     C    0.70397   0.98079   0.08129   1.000
    O83     O    0.64019   0.02618   0.02443   1.000
    O84     O    0.77620   0.00004   0.08201   1.000
    O85     O    0.62407   0.96021   0.07257   1.000
    C86     C    0.79513   0.98107   0.58075   1.000
    O87     O    0.72286   0.00038   0.58161   1.000
    O88     O    0.87484   0.96036   0.57214   1.000
    O89     O    0.85965   0.02627   0.52399   1.000
    C90     C    0.52556   0.10964   0.75030   1.000
    O91     O    0.53860   0.08593   0.69444   1.000
    O92     O    0.52151   0.11293   0.80954   1.000
    O93     O    0.53636   0.08420   0.75627   1.000
    C94     C    0.01712   0.28522   0.50071   1.000
    O95     O    0.00237   0.22449   0.47098   1.000
    O96     O    0.03353   0.35696   0.52765   1.000
    O97     O    0.98575   0.37113   0.46234   1.000
    C98     C    0.47441   0.39050   0.25026   1.000
    O99     O    0.46360   0.41592   0.25623   1.000
    O100    O    0.47847   0.38722   0.30951   1.000
    O101    O    0.46138   0.41421   0.19440   1.000
    C102    C    0.97452   0.60933   0.24971   1.000
    O103    O    0.97937   0.61259   0.19047   1.000
    O104    O    0.96070   0.58570   0.30555   1.000
    O105    O    0.96373   0.58389   0.24369   1.000
    C106    C    0.20487   0.51911   0.08069   1.000
    O107    O    0.12516   0.53978   0.07209   1.000
    O108    O    0.14037   0.47389   0.02395   1.000
    O109    O    0.27715   0.49980   0.08155   1.000
    C110    C    0.58844   0.96048   0.78571   1.000
    O111    O    0.57829   0.98474   0.77987   1.000
    O112    O    0.57063   0.99495   0.83789   1.000
    C113    C    0.70390   0.48088   0.41851   1.000
    O114    O    0.64000   0.52630   0.47538   1.000
    O115    O    0.62400   0.46029   0.42726   1.000
    O116    O    0.77613   0.50014   0.41785   1.000
    C117    C    0.91163   0.46014   0.21394   1.000
    O118    O    0.93020   0.49462   0.16186   1.000
    O119    O    0.92178   0.48440   0.21986   1.000
    C120    C    0.52324   0.61067   0.75010   1.000
    O121    O    0.53447   0.58556   0.74402   1.000
    O122    O    0.51925   0.61364   0.69079   1.000
    O123    O    0.53723   0.58678   0.80570   1.000
    C124    C    0.58878   0.46313   0.71418   1.000
    O125    O    0.57819   0.48716   0.72011   1.000
    O126    O    0.57084   0.49704   0.66204   1.000
    C127    C    0.02244   0.89075   0.74982   1.000
    O128    O    0.03476   0.91619   0.74377   1.000
    O129    O    0.01683   0.88750   0.69056   1.000
    O130    O    0.03777   0.91442   0.80564   1.000
    C131    C    0.08838   0.03993   0.71396   1.000
    O132    O    0.06980   0.00546   0.66188   1.000
    O133    O    0.07822   0.01568   0.71989   1.000
    C134    C    0.08830   0.53990   0.78597   1.000
    O135    O    0.06976   0.50542   0.83807   1.000
    O136    O    0.07816   0.51564   0.78006   1.000
    C137    C    0.41156   0.03972   0.21437   1.000
    O138    O    0.42171   0.01546   0.22020   1.000
    O139    O    0.42935   0.00524   0.16217   1.000
    C140    C    0.02242   0.39070   0.75020   1.000
    O141    O    0.03772   0.41439   0.69436   1.000
    O142    O    0.03473   0.41614   0.75623   1.000
    O143    O    0.01682   0.38745   0.80946   1.000
loop_
    _geom_bond_atom_site_label_1
    _geom_bond_atom_site_label_2
    _geom_bond_distance
    _geom_bond_site_symmetry_2
    _ccdc_geom_bond_type
    C24    O25       1.12151      .   S
    Zr3    O25       2.12357      .   S
    C24    O26       1.42556      .   S
    Zr11   O26       2.41756  1_565   S
    C24    O27       1.00429      .   S
    Zr0    O27       2.02588      .   S
    C28    O29       1.43153  1_545   S
    Zr6    O29       2.44175      .   S
    C28    O30       0.99141  1_545   S
    Zr11   O30       1.99015      .   S
    C28    O31       1.10071      .   S
    Zr14   O31       2.07766  1_655   S
    C32    O33       1.00902      .   S
    Zr10   O33       2.01550      .   S
    C32    O34       0.39572      .   S
    C22    O34       0.78274      .   S
    C32    O35       1.01973      .   S
    Zr11   O35       2.00491      .   S
    C36    O37       1.12044      .   S
    Zr1    O37       2.12260      .   S
    C36    O38       1.42643  1_554   S
    Zr9    O38       2.41953      .   S
    C36    O39       1.00560  1_554   S
    Zr2    O39       2.02790      .   S
    C40    O41       1.42611  1_654   S
    Zr7    O41       2.41849  1_565   S
    C40    O42       1.12067      .   S
    Zr15   O42       2.12379      .   S
    C40    O43       1.00470  1_554   S
    Zr12   O43       2.02569  1_455   S
    C44    O45       1.00496      .   S
    Zr8    O45       2.02590      .   S
    C44    O46       1.42526      .   S
    Zr3    O46       2.41638  1_545   S
    C44    O47       1.12050      .   S
    Zr11   O47       2.12225      .   S
    C48    O49       1.42511  1_556   S
    Zr1    O49       2.41626      .   S
    C48    O50       1.12170      .   S
    Zr9    O50       2.12680      .   S
    C48    O51       1.00458  1_556   S
    Zr10   O51       2.02555      .   S
    C52    O53       0.98833      .   S
    Zr13   O53       1.98219      .   S
    C52    O54       1.10185      .   S
    Zr8    O54       2.07998      .   S
    C52    O55       1.42997      .   S
    Zr0    O55       2.43643      .   S
    C56    O57       0.99117      .   S
    Zr9    O57       1.98968      .   S
    C56    O58       1.10194      .   S
    Zr12   O58       2.07777  1_455   S
    C56    O59       1.43746      .   S
    Zr4    O59       2.44758  1_554   S
    C60    O61       1.00495      .   S
    Zr6    O61       2.02606  1_455   S
    C60    O62       1.42577  1_655   S
    Zr13   O62       2.41787      .   S
    C60    O63       1.12075      .   S
    Zr5    O63       2.12412      .   S
    C64    O65       1.03627      .   S
    Zr14   O65       2.11867  1_545   S
    C64    O66       0.37721      .   S
    C17    O66       0.76419  1_545   S
    C67    O68       0.37739      .   S
    C16    O68       0.76444      .   S
    C67    O69       1.03542      .   S
    Zr0    O69       2.11736      .   S
    C70    O71       1.43954  1_545   S
    Zr10   O71       2.44672  1_554   S
    C70    O72       1.10381      .   S
    Zr2    O72       2.07960      .   S
    C70    O73       0.98928      .   S
    Zr7    O73       1.98291  1_565   S
    C74    O75       1.00961      .   S
    Zr14   O75       2.01696      .   S
    C74    O76       0.39556      .   S
    C17    O76       0.78254      .   S
    C74    O77       1.02066      .   S
    Zr15   O77       2.00607      .   S
    C78    O79       1.12094      .   S
    Zr7    O79       2.12433      .   S
    C78    O80       1.00481  1_556   S
    Zr4    O80       2.02617  1_655   S
    C78    O81       1.42621  1_456   S
    Zr15   O81       2.41869  1_545   S
    C82    O83       1.42961  1_565   S
    Zr2    O83       2.43635  1_556   S
    C82    O84       0.98929  1_565   S
    Zr15   O84       1.98414      .   S
    C82    O85       1.10177      .   S
    Zr10   O85       2.07978      .   S
    C86    O87       0.99123  1_565   S
    Zr3    O87       1.98983      .   S
    C86    O88       1.10068      .   S
    Zr6    O88       2.07773  1_455   S
    C86    O89       1.43112  1_565   S
    Zr14   O89       2.44106      .   S
    C90    O91       1.01971      .   S
    Zr3    O91       2.00473      .   S
    C90    O92       1.00889      .   S
    Zr2    O92       2.01536      .   S
    C90    O93       0.39575      .   S
    C19    O93       0.78279      .   S
    C94    O95       1.00501      .   S
    Zr14   O95       2.02661  1_655   S
    C94    O96       1.12105      .   S
    Zr13   O96       2.12480      .   S
    C94    O97       1.42591  1_455   S
    Zr5    O97       2.41820      .   S
    C98    O99       0.39575      .   S
    C16    O99       0.78281      .   S
    C98    O100      1.00888      .   S
    Zr0    O100      2.01549      .   S
    C98    O101      1.01962      .   S
    Zr1    O101      2.00450      .   S
    C102   O103      1.00938      .   S
    Zr4    O103      2.01653      .   S
    C102   O104      1.02043      .   S
    Zr5    O104      2.00584      .   S
    C102   O105      0.39554      .   S
    C21    O105      0.78256      .   S
    C106   O107      1.10054      .   S
    Zr4    O107      2.07746  1_655   S
    C106   O108      1.43149      .   S
    Zr12   O108      2.44176  1_556   S
    C106   O109      0.99136      .   S
    Zr1    O109      1.99009      .   S
    C110   O111      0.37736      .   S
    C19    O111      0.76439  1_545   S
    C110   O112      1.03565      .   S
    Zr2    O112      2.11817  1_545   S
    C113   O114      1.43082      .   S
    Zr8    O114      2.43989      .   S
    C113   O115      1.10172      .   S
    Zr0    O115      2.07951      .   S
    C113   O116      0.98937      .   S
    Zr5    O116      1.98415      .   S
    C117   O118      1.03589      .   S
    Zr4    O118      2.11737      .   S
    C117   O119      0.37728      .   S
    C21    O119      0.76430      .   S
    C120   O121      0.39438      .   S
    C23    O121      0.78077      .   S
    C120   O122      1.00979      .   S
    Zr8    O122      2.02259      .   S
    C120   O123      1.01850      .   S
    Zr9    O123      2.00043      .   S
    C124   O125      0.37709      .   S
    C23    O125      0.76347      .   S
    C124   O126      1.03172      .   S
    Zr8    O126      2.10024      .   S
    C127   O128      0.40310      .   S
    C20    O128      0.78983      .   S
    C127   O129      1.01045      .   S
    Zr6    O129      2.01847      .   S
    C127   O130      1.02434      .   S
    Zr7    O130      2.01100      .   S
    C131   O132      1.03630      .   S
    Zr6    O132      2.11891  1_565   S
    C131   O133      0.37719      .   S
    C20    O133      0.76414  1_565   S
    C134   O135      1.03605      .   S
    Zr12   O135      2.11775      .   S
    C134   O136      0.37721      .   S
    C18    O136      0.76420      .   S
    C137   O138      0.37731      .   S
    C22    O138      0.76433  1_565   S
    C137   O139      1.03597      .   S
    Zr10   O139      2.11912  1_565   S
    C140   O141      1.02426      .   S
    Zr13   O141      2.01067      .   S
    C140   O142      0.40317      .   S
    C18    O142      0.78994      .   S
    C140   O143      1.01038      .   S
    Zr12   O143      2.01868      .   S
