# CIF file generated by openbabel 2.4.90, see http://openbabel.sf.net
data_I
_chemical_name_common ''
_cell_length_a 13.19
_cell_length_b 13.947
_cell_length_c 16.988
_cell_angle_alpha 89.974
_cell_angle_beta 89.987
_cell_angle_gamma 90.126
_space_group_name_H-M_alt 'P 1'
_space_group_name_Hall 'P 1'
loop_
    _symmetry_equiv_pos_as_xyz
    x,y,z
loop_
    _atom_site_label
    _atom_site_type_symbol
    _atom_site_fract_x
    _atom_site_fract_y
    _atom_site_fract_z
    _atom_site_occupancy
    Zr0     Zr   0.47601   0.40859   0.42682   1.000
    Zr1     Zr   0.42577   0.48013   0.09327   1.000
    Zr2     Zr   0.52396   0.09161   0.92687   1.000
    Zr3     Zr   0.57425   0.02004   0.59333   1.000
    Zr4     Zr   0.97756   0.59143   0.07306   1.000
    Zr5     Zr   0.92448   0.51973   0.40670   1.000
    Zr6     Zr   0.02242   0.90860   0.57308   1.000
    Zr7     Zr   0.07545   0.98055   0.90669   1.000
    Zr8     Zr   0.52362   0.59165   0.57316   1.000
    Zr9     Zr   0.57436   0.52038   0.90600   1.000
    Zr10    Zr   0.47604   0.90855   0.07314   1.000
    Zr11    Zr   0.42586   0.98019   0.40672   1.000
    Zr12    Zr   0.02243   0.40862   0.92692   1.000
    Zr13    Zr   0.07532   0.48054   0.59326   1.000
    Zr14    Zr   0.97758   0.09149   0.42690   1.000
    Zr15    Zr   0.92453   0.01961   0.09329   1.000
    Zr16    Zr   0.23986   0.36157   0.49164   1.000
    Zr17    Zr   0.44167   0.19922   0.34800   1.000
    Zr18    Zr   0.34919   0.65038   0.66605   1.000
    Zr19    Zr   0.22608   0.61206   0.68206   1.000
    Zr20    Zr   0.56269   0.22958   0.63843   1.000
    Zr21    Zr   0.56675   0.33892   0.59106   1.000
    Zr22    Zr   0.75996   0.13861   0.99179   1.000
    Zr23    Zr   0.55929   0.30122   0.84863   1.000
    Zr24    Zr   0.65016   0.84982   0.16638   1.000
    Zr25    Zr   0.77322   0.88826   0.18265   1.000
    Zr26    Zr   0.43702   0.27124   0.13809   1.000
    Zr27    Zr   0.43322   0.16173   0.09123   1.000
    Zr28    Zr   0.74031   0.63886   0.00000   1.000
    Zr29    Zr   0.94053   0.80061   0.15110   1.000
    Zr30    Zr   0.84833   0.35091   0.83350   1.000
    Zr31    Zr   0.72561   0.38957   0.81727   1.000
    Zr32    Zr   0.06489   0.77170   0.86220   1.000
    Zr33    Zr   0.06806   0.66220   0.90896   1.000
    Zr34    Zr   0.25992   0.86153   0.50903   1.000
    Zr35    Zr   0.05891   0.69946   0.65123   1.000
    Zr36    Zr   0.15186   0.14980   0.33380   1.000
    Zr37    Zr   0.27487   0.11168   0.31792   1.000
    Zr38    Zr   0.93534   0.72848   0.36214   1.000
    Zr39    Zr   0.93202   0.83799   0.40882   1.000
    Zr40    Zr   0.75962   0.63891   0.50773   1.000
    Zr41    Zr   0.55863   0.80101   0.65136   1.000
    Zr42    Zr   0.65031   0.34976   0.33360   1.000
    Zr43    Zr   0.77337   0.38816   0.31742   1.000
    Zr44    Zr   0.43714   0.77116   0.36172   1.000
    Zr45    Zr   0.43326   0.66160   0.40864   1.000
    Zr46    Zr   0.24000   0.86175   0.00000   1.000
    Zr47    Zr   0.44099   0.69920   0.15133   1.000
    Zr48    Zr   0.34980   0.15042   0.83363   1.000
    Zr49    Zr   0.22674   0.11197   0.81737   1.000
    Zr50    Zr   0.56301   0.72946   0.86195   1.000
    Zr51    Zr   0.56718   0.83879   0.90893   1.000
    Zr52    Zr   0.25988   0.36148   0.99099   1.000
    Zr53    Zr   0.05930   0.19951   0.84885   1.000
    Zr54    Zr   0.15170   0.64962   0.16609   1.000
    Zr55    Zr   0.27469   0.61146   0.18209   1.000
    Zr56    Zr   0.93513   0.22837   0.13781   1.000
    Zr57    Zr   0.93191   0.33790   0.09109   1.000
    Zr58    Zr   0.74021   0.13878   0.49105   1.000
    Zr59    Zr   0.94068   0.30075   0.34870   1.000
    Zr60    Zr   0.84821   0.85051   0.66623   1.000
    Zr61    Zr   0.72521   0.88867   0.68218   1.000
    Zr62    Zr   0.06474   0.27170   0.63770   1.000
    Zr63    Zr   0.06801   0.16223   0.59100   1.000
    Zr64    Zr   0.42128   0.51599   0.27984   1.000
    Zr65    Zr   0.46329   0.41647   0.25631   1.000
    Zr66    Zr   0.29983   0.54712   0.59240   1.000
    Zr67    Zr   0.27547   0.42272   0.51987   1.000
    Zr68    Zr   0.53059   0.22039   0.52300   1.000
    Zr69    Zr   0.47044   0.19074   0.40791   1.000
    Zr70    Zr   0.57863   0.98411   0.77992   1.000
    Zr71    Zr   0.53667   0.08365   0.75636   1.000
    Zr72    Zr   0.69972   0.95324   0.09279   1.000
    Zr73    Zr   0.72429   0.07749   0.02007   1.000
    Zr74    Zr   0.46963   0.28010   0.02276   1.000
    Zr75    Zr   0.53024   0.30971   0.90777   1.000
    Zr76    Zr   0.92143   0.48376   0.21983   1.000
    Zr77    Zr   0.96343   0.58335   0.24363   1.000
    Zr78    Zr   0.79920   0.45381   0.90700   1.000
    Zr79    Zr   0.77555   0.57778   0.98049   1.000
    Zr80    Zr   0.03153   0.78029   0.97734   1.000
    Zr81    Zr   0.96990   0.80935   0.09206   1.000
    Zr82    Zr   0.07856   0.01632   0.71986   1.000
    Zr83    Zr   0.03658   0.91673   0.74369   1.000
    Zr84    Zr   0.20094   0.04677   0.40778   1.000
    Zr85    Zr   0.22463   0.92263   0.48064   1.000
    Zr86    Zr   0.96841   0.71988   0.47733   1.000
    Zr87    Zr   0.02969   0.69075   0.59215   1.000
    Zr88    Zr   0.57854   0.48656   0.72008   1.000
    Zr89    Zr   0.53475   0.58507   0.74390   1.000
    Zr90    Zr   0.69972   0.45327   0.40710   1.000
    Zr91    Zr   0.72403   0.57773   0.47954   1.000
    Zr92    Zr   0.46963   0.77995   0.47705   1.000
    Zr93    Zr   0.52989   0.80950   0.59214   1.000
    Zr94    Zr   0.42136   0.01608   0.22015   1.000
    Zr95    Zr   0.46332   0.91654   0.24368   1.000
    Zr96    Zr   0.30023   0.04707   0.90726   1.000
    Zr97    Zr   0.27567   0.92285   0.98002   1.000
    Zr98    Zr   0.53079   0.72036   0.97725   1.000
    Zr99    Zr   0.47005   0.69073   0.09220   1.000
    Zr100   Zr   0.07851   0.51628   0.78010   1.000
    Zr101   Zr   0.03655   0.41668   0.75631   1.000
    Zr102   Zr   0.20087   0.54665   0.09221   1.000
    Zr103   Zr   0.22459   0.42256   0.01936   1.000
    Zr104   Zr   0.96843   0.21983   0.02266   1.000
    Zr105   Zr   0.02997   0.19078   0.90791   1.000
    Zr106   Zr   0.92143   0.98375   0.28017   1.000
    Zr107   Zr   0.96341   0.08334   0.25633   1.000
    Zr108   Zr   0.79913   0.95352   0.59200   1.000
    Zr109   Zr   0.77547   0.07767   0.51943   1.000
    Zr110   Zr   0.03146   0.28034   0.52259   1.000
    Zr111   Zr   0.96996   0.30944   0.40785   1.000
    Zr112   Zr   0.22733   0.48129   0.57182   1.000
    Zr113   Zr   0.37091   0.44872   0.50800   1.000
    Zr114   Zr   0.38735   0.52961   0.55427   1.000
    Zr115   Zr   0.28444   0.62189   0.64248   1.000
    Zr116   Zr   0.48495   0.10597   0.44144   1.000
    Zr117   Zr   0.52433   0.12383   0.51630   1.000
    Zr118   Zr   0.49716   0.26437   0.45582   1.000
    Zr119   Zr   0.57099   0.26582   0.58637   1.000
    Zr120   Zr   0.77232   0.01897   0.07215   1.000
    Zr121   Zr   0.62886   0.05151   0.00825   1.000
    Zr122   Zr   0.61229   0.97071   0.05456   1.000
    Zr123   Zr   0.71492   0.87854   0.14300   1.000
    Zr124   Zr   0.51558   0.39449   0.94120   1.000
    Zr125   Zr   0.47592   0.37666   0.01600   1.000
    Zr126   Zr   0.50333   0.23607   0.95568   1.000
    Zr127   Zr   0.42898   0.23483   0.08611   1.000
    Zr128   Zr   0.72707   0.51968   0.92818   1.000
    Zr129   Zr   0.87077   0.55142   0.99242   1.000
    Zr130   Zr   0.88667   0.47075   0.94593   1.000
    Zr131   Zr   0.78364   0.37938   0.85700   1.000
    Zr132   Zr   0.98435   0.89428   0.05866   1.000
    Zr133   Zr   0.02473   0.87681   0.98403   1.000
    Zr134   Zr   0.99757   0.73597   0.04431   1.000
    Zr135   Zr   0.07285   0.73529   0.91420   1.000
    Zr136   Zr   0.27316   0.98098   0.42848   1.000
    Zr137   Zr   0.12932   0.94875   0.49246   1.000
    Zr138   Zr   0.11338   0.02953   0.44605   1.000
    Zr139   Zr   0.21649   0.12141   0.35745   1.000
    Zr140   Zr   0.01531   0.60584   0.55876   1.000
    Zr141   Zr   0.97515   0.62336   0.48407   1.000
    Zr142   Zr   0.00218   0.76417   0.54434   1.000
    Zr143   Zr   0.92729   0.76490   0.41410   1.000
    Zr144   Zr   0.77224   0.51908   0.42767   1.000
    Zr145   Zr   0.62858   0.55177   0.49132   1.000
    Zr146   Zr   0.61219   0.47082   0.44520   1.000
    Zr147   Zr   0.71504   0.37845   0.35704   1.000
    Zr148   Zr   0.51531   0.89430   0.55868   1.000
    Zr149   Zr   0.47587   0.87651   0.48380   1.000
    Zr150   Zr   0.50318   0.73591   0.54420   1.000
    Zr151   Zr   0.42910   0.73470   0.41370   1.000
    Zr152   Zr   0.22763   0.98135   0.92793   1.000
    Zr153   Zr   0.37110   0.94884   0.99180   1.000
    Zr154   Zr   0.38766   0.02963   0.94551   1.000
    Zr155   Zr   0.28503   0.12175   0.85000   1.000
    Zr156   Zr   0.48473   0.60596   0.05875   1.000
    Zr157   Zr   0.52449   0.62381   0.98400   1.000
    Zr158   Zr   0.49702   0.76436   0.04431   1.000
    Zr159   Zr   0.57155   0.76569   0.91396   1.000
    Zr160   Zr   0.27308   0.48084   0.07154   1.000
    Zr161   Zr   0.12930   0.44873   0.00751   1.000
    Zr162   Zr   0.11335   0.52947   0.05391   1.000
    Zr163   Zr   0.21637   0.62123   0.14250   1.000
    Zr164   Zr   0.01555   0.10584   0.94131   1.000
    Zr165   Zr   0.97523   0.12332   0.01596   1.000
    Zr166   Zr   0.00234   0.26416   0.95568   1.000
    Zr167   Zr   0.92714   0.26481   0.08582   1.000
    Zr168   Zr   0.72694   0.01936   0.57162   1.000
    Zr169   Zr   0.87075   0.05147   0.50757   1.000
    Zr170   Zr   0.88667   0.97070   0.55398   1.000
    Zr171   Zr   0.78357   0.87891   0.64265   1.000
    Zr172   Zr   0.98428   0.39436   0.44126   1.000
    Zr173   Zr   0.02457   0.37684   0.51591   1.000
    Zr174   Zr   0.99765   0.23603   0.45560   1.000
    Zr175   Zr   0.07277   0.23532   0.58574   1.000
    Zr176   Zr   0.47093   0.39573   0.18380   1.000
    Zr177   Zr   0.39490   0.56998   0.22386   1.000
    Zr178   Zr   0.48903   0.35929   0.31068   1.000
    Zr179   Zr   0.41824   0.53289   0.35316   1.000
    Zr180   Zr   0.52905   0.10440   0.68384   1.000
    Zr181   Zr   0.60499   0.93012   0.72397   1.000
    Zr182   Zr   0.51096   0.14085   0.81070   1.000
    Zr183   Zr   0.58169   0.96722   0.85325   1.000
    Zr184   Zr   0.96927   0.60440   0.31610   1.000
    Zr185   Zr   0.89347   0.42991   0.27551   1.000
    Zr186   Zr   0.99087   0.64025   0.18940   1.000
    Zr187   Zr   0.91997   0.46675   0.14649   1.000
    Zr188   Zr   0.03075   0.89564   0.81624   1.000
    Zr189   Zr   0.10653   0.07012   0.77550   1.000
    Zr190   Zr   0.00000   0.85990   0.68952   1.000
    Zr191   Zr   0.08004   0.03336   0.64653   1.000
    Zr192   Zr   0.52807   0.60539   0.81660   1.000
    Zr193   Zr   0.60561   0.43257   0.77582   1.000
    Zr194   Zr   0.50691   0.64156   0.68979   1.000
    Zr195   Zr   0.58219   0.47026   0.64664   1.000
    Zr196   Zr   0.47097   0.89577   0.31619   1.000
    Zr197   Zr   0.39507   0.07007   0.27614   1.000
    Zr198   Zr   0.48904   0.85938   0.18932   1.000
    Zr199   Zr   0.41825   0.03299   0.14682   1.000
    Zr200   Zr   0.03072   0.39562   0.68377   1.000
    Zr201   Zr   0.10636   0.57014   0.72438   1.000
    Zr202   Zr   0.00000   0.35979   0.81051   1.000
    Zr203   Zr   0.08002   0.53328   0.85343   1.000
    Zr204   Zr   0.96925   0.10441   0.18377   1.000
    Zr205   Zr   0.89346   0.92994   0.22450   1.000
    Zr206   Zr   0.99086   0.14023   0.31048   1.000
    Zr207   Zr   0.91998   0.96671   0.35351   1.000
    O208    O    0.75793   0.60832   0.99024   1.000
    O209    O    0.25783   0.89230   0.99001   1.000
    O210    O    0.17694   0.43565   0.01343   1.000
    O211    O    0.12132   0.48910   0.03071   1.000
    O212    O    0.07587   0.42867   0.96721   1.000
    O213    O    0.67657   0.06450   0.01416   1.000
    O214    O    0.62058   0.01111   0.03140   1.000
    O215    O    0.57641   0.07156   0.96756   1.000
    O216    O    0.97183   0.17158   0.01931   1.000
    O217    O    0.94988   0.07147   0.05462   1.000
    O218    O    0.99539   0.11458   0.97863   1.000
    O219    O    0.47278   0.32838   0.01938   1.000
    O220    O    0.45085   0.42839   0.05464   1.000
    O221    O    0.49575   0.38557   0.97860   1.000
    O222    O    0.24883   0.45170   0.04545   1.000
    O223    O    0.24224   0.39202   0.00517   1.000
    O224    O    0.74831   0.04823   0.04611   1.000
    O225    O    0.74212   0.10805   0.00593   1.000
    O226    O    0.94778   0.24232   0.05424   1.000
    O227    O    0.98538   0.24199   0.98917   1.000
    O228    O    0.44931   0.25746   0.05443   1.000
    O229    O    0.48648   0.25808   0.98922   1.000
    O230    O    0.48653   0.83645   0.05872   1.000
    O231    O    0.48353   0.72754   0.06825   1.000
    O232    O    0.51390   0.74236   0.01078   1.000
    O233    O    0.98756   0.66370   0.05869   1.000
    O234    O    0.98373   0.77266   0.06818   1.000
    O235    O    0.01455   0.75813   0.01082   1.000
    O236    O    0.04545   0.56045   0.06348   1.000
    O237    O    0.15711   0.53806   0.07306   1.000
    O238    O    0.54417   0.93963   0.06385   1.000
    O239    O    0.65601   0.96197   0.07367   1.000
    O240    O    0.97712   0.85181   0.07536   1.000
    O241    O    0.95444   0.95695   0.07597   1.000
    O242    O    0.00454   0.88554   0.02135   1.000
    O243    O    0.47739   0.64834   0.07548   1.000
    O244    O    0.45525   0.54304   0.07601   1.000
    O245    O    0.50461   0.61489   0.02138   1.000
    O246    O    0.23697   0.51374   0.08188   1.000
    O247    O    0.34943   0.48048   0.08240   1.000
    O248    O    0.73602   0.98610   0.08247   1.000
    O249    O    0.84843   0.01929   0.08272   1.000
    O250    O    0.94876   0.52909   0.10977   1.000
    O251    O    0.98422   0.61584   0.13123   1.000
    O252    O    0.92416   0.57143   0.03274   1.000
    O253    O    0.44714   0.97077   0.10998   1.000
    O254    O    0.48254   0.88396   0.13123   1.000
    O255    O    0.42357   0.92869   0.03247   1.000
    O256    O    0.92952   0.30136   0.08845   1.000
    O257    O    0.93113   0.24659   0.11181   1.000
    O258    O    0.43110   0.19828   0.08867   1.000
    O259    O    0.43300   0.25303   0.11210   1.000
    O260    O    0.95521   0.80498   0.12158   1.000
    O261    O    0.45552   0.69496   0.12176   1.000
    O262    O    0.20862   0.58394   0.11735   1.000
    O263    O    0.70732   0.91589   0.11789   1.000
    O264    O    0.44835   0.43793   0.13853   1.000
    O265    O    0.94689   0.06201   0.13853   1.000
    O266    O    0.18404   0.63542   0.15429   1.000
    O267    O    0.24553   0.61635   0.16229   1.000
    O268    O    0.68254   0.86418   0.15469   1.000
    O269    O    0.74407   0.88340   0.16282   1.000
    O270    O    0.92070   0.47526   0.18316   1.000
    O271    O    0.41980   0.02454   0.18348   1.000
    O272    O    0.96633   0.09388   0.22005   1.000
    O273    O    0.46711   0.40610   0.22005   1.000
    O274    O    0.47618   0.88796   0.21650   1.000
    O275    O    0.97715   0.61180   0.21651   1.000
    O276    O    0.94243   0.53355   0.23173   1.000
    O277    O    0.90745   0.45684   0.24767   1.000
    O278    O    0.44234   0.96631   0.23191   1.000
    O279    O    0.40822   0.04308   0.24814   1.000
    O280    O    0.40809   0.54298   0.25185   1.000
    O281    O    0.90745   0.95684   0.25233   1.000
    O282    O    0.96635   0.59387   0.27986   1.000
    O283    O    0.46715   0.90615   0.27993   1.000
    O284    O    0.44228   0.46623   0.26807   1.000
    O285    O    0.47616   0.38788   0.28349   1.000
    O286    O    0.94242   0.03355   0.26825   1.000
    O287    O    0.97714   0.11179   0.28340   1.000
    O288    O    0.41976   0.52444   0.31650   1.000
    O289    O    0.92070   0.97523   0.31684   1.000
    O290    O    0.98422   0.11586   0.36869   1.000
    O291    O    0.48252   0.38394   0.36875   1.000
    O292    O    0.94688   0.56207   0.36140   1.000
    O293    O    0.44841   0.93798   0.36146   1.000
    O294    O    0.74420   0.38330   0.33723   1.000
    O295    O    0.24568   0.11655   0.33768   1.000
    O296    O    0.68267   0.36410   0.34532   1.000
    O297    O    0.18417   0.13560   0.34562   1.000
    O298    O    0.45605   0.19498   0.37795   1.000
    O299    O    0.95532   0.30510   0.37827   1.000
    O300    O    0.44712   0.47074   0.38999   1.000
    O301    O    0.94878   0.02910   0.39020   1.000
    O302    O    0.70738   0.41586   0.38207   1.000
    O303    O    0.20872   0.08409   0.38261   1.000
    O304    O    0.43312   0.75293   0.38771   1.000
    O305    O    0.93132   0.74669   0.38812   1.000
    O306    O    0.84836   0.51940   0.41718   1.000
    O307    O    0.95438   0.45704   0.42398   1.000
    O308    O    0.94982   0.57155   0.44538   1.000
    O309    O    0.34951   0.98058   0.41760   1.000
    O310    O    0.45541   0.04308   0.42408   1.000
    O311    O    0.45087   0.92835   0.44526   1.000
    O312    O    0.73598   0.48617   0.41738   1.000
    O313    O    0.65596   0.46204   0.42615   1.000
    O314    O    0.23705   0.01388   0.41813   1.000
    O315    O    0.15716   0.03815   0.42691   1.000
    O316    O    0.97712   0.35190   0.42455   1.000
    O317    O    0.98380   0.27274   0.43172   1.000
    O318    O    0.47769   0.14835   0.42467   1.000
    O319    O    0.48380   0.22755   0.43186   1.000
    O320    O    0.43118   0.69815   0.41117   1.000
    O321    O    0.92965   0.80145   0.41146   1.000
    O322    O    0.44936   0.75732   0.44537   1.000
    O323    O    0.94785   0.74239   0.44571   1.000
    O324    O    0.54410   0.43971   0.43601   1.000
    O325    O    0.48658   0.33648   0.44132   1.000
    O326    O    0.42346   0.42866   0.46741   1.000
    O327    O    0.04548   0.06051   0.43647   1.000
    O328    O    0.98762   0.16376   0.44125   1.000
    O329    O    0.92417   0.07148   0.46723   1.000
    O330    O    0.74814   0.54840   0.45360   1.000
    O331    O    0.24890   0.95180   0.45456   1.000
    O332    O    0.00442   0.38560   0.47858   1.000
    O333    O    0.50464   0.11490   0.47887   1.000
    O334    O    0.62039   0.51130   0.46826   1.000
    O335    O    0.12135   0.98914   0.46925   1.000
    O336    O    0.01455   0.25818   0.48910   1.000
    O337    O    0.51387   0.24238   0.48941   1.000
    O338    O    0.47275   0.82823   0.48043   1.000
    O339    O    0.48640   0.75793   0.51062   1.000
    O340    O    0.97178   0.67162   0.48070   1.000
    O341    O    0.98530   0.74203   0.51083   1.000
    O342    O    0.67631   0.56475   0.48543   1.000
    O343    O    0.74183   0.60832   0.49363   1.000
    O344    O    0.17698   0.93569   0.48655   1.000
    O345    O    0.24228   0.89208   0.49483   1.000
    O346    O    0.49559   0.88541   0.52124   1.000
    O347    O    0.99523   0.61460   0.52142   1.000
    O348    O    0.75784   0.10822   0.50524   1.000
    O349    O    0.57610   0.57171   0.53224   1.000
    O350    O    0.25767   0.39214   0.50575   1.000
    O351    O    0.07587   0.92868   0.53277   1.000
    O352    O    0.82311   0.06457   0.51350   1.000
    O353    O    0.87871   0.01109   0.53077   1.000
    O354    O    0.32319   0.43572   0.51393   1.000
    O355    O    0.37913   0.48917   0.53113   1.000
    O356    O    0.02801   0.32859   0.51925   1.000
    O357    O    0.04995   0.42869   0.55458   1.000
    O358    O    0.52746   0.17211   0.51965   1.000
    O359    O    0.54929   0.07194   0.55481   1.000
    O360    O    0.75120   0.04851   0.54553   1.000
    O361    O    0.25140   0.45200   0.54584   1.000
    O362    O    0.05211   0.25783   0.55416   1.000
    O363    O    0.55079   0.24310   0.55468   1.000
    O364    O    0.51340   0.66378   0.55868   1.000
    O365    O    0.51654   0.77270   0.56817   1.000
    O366    O    0.01230   0.83639   0.55871   1.000
    O367    O    0.01594   0.72746   0.56824   1.000
    O368    O    0.95455   0.93965   0.56353   1.000
    O369    O    0.84290   0.96211   0.57299   1.000
    O370    O    0.45548   0.56063   0.56371   1.000
    O371    O    0.34359   0.53837   0.57333   1.000
    O372    O    0.52260   0.85190   0.57541   1.000
    O373    O    0.54478   0.95717   0.57600   1.000
    O374    O    0.02250   0.64830   0.57546   1.000
    O375    O    0.04532   0.54319   0.57601   1.000
    O376    O    0.76304   0.98644   0.58181   1.000
    O377    O    0.65059   0.01970   0.58247   1.000
    O378    O    0.26358   0.51420   0.58211   1.000
    O379    O    0.15133   0.48091   0.58254   1.000
    O380    O    0.05123   0.97098   0.60980   1.000
    O381    O    0.01121   0.88425   0.63130   1.000
    O382    O    0.55290   0.53095   0.60990   1.000
    O383    O    0.51526   0.61660   0.63147   1.000
    O384    O    0.07039   0.19877   0.58837   1.000
    O385    O    0.06876   0.25351   0.61172   1.000
    O386    O    0.56887   0.30237   0.58871   1.000
    O387    O    0.56684   0.24770   0.61240   1.000
    O388    O    0.79135   0.91622   0.61732   1.000
    O389    O    0.54426   0.80525   0.62175   1.000
    O390    O    0.04430   0.69510   0.62169   1.000
    O391    O    0.29213   0.58451   0.61744   1.000
    O392    O    0.05302   0.43808   0.63851   1.000
    O393    O    0.55165   0.06222   0.63858   1.000
    O394    O    0.31681   0.63613   0.65426   1.000
    O395    O    0.25526   0.61697   0.66227   1.000
    O396    O    0.81589   0.86471   0.65444   1.000
    O397    O    0.75439   0.88379   0.66242   1.000
    O398    O    0.07930   0.02484   0.68319   1.000
    O399    O    0.58037   0.47841   0.68336   1.000
    O400    O    0.03364   0.40615   0.72004   1.000
    O401    O    0.53286   0.09403   0.72010   1.000
    O402    O    0.01829   0.88831   0.71661   1.000
    O403    O    0.52083   0.61331   0.71684   1.000
    O404    O    0.05757   0.96653   0.73177   1.000
    O405    O    0.09255   0.04322   0.74768   1.000
    O406    O    0.55665   0.53581   0.73199   1.000
    O407    O    0.59208   0.45957   0.74795   1.000
    O408    O    0.59181   0.95712   0.75194   1.000
    O409    O    0.09244   0.54321   0.75224   1.000
    O410    O    0.03366   0.90618   0.77996   1.000
    O411    O    0.53141   0.59523   0.78025   1.000
    O412    O    0.05753   0.46648   0.76820   1.000
    O413    O    0.01828   0.38824   0.78341   1.000
    O414    O    0.55765   0.03388   0.76814   1.000
    O415    O    0.52382   0.11225   0.78353   1.000
    O416    O    0.58016   0.97567   0.81658   1.000
    O417    O    0.07926   0.52478   0.81676   1.000
    O418    O    0.01122   0.38420   0.86871   1.000
    O419    O    0.51746   0.11623   0.86878   1.000
    O420    O    0.05310   0.93809   0.86146   1.000
    O421    O    0.55122   0.56288   0.86130   1.000
    O422    O    0.75463   0.38448   0.83713   1.000
    O423    O    0.25589   0.11686   0.83368   1.000
    O424    O    0.81598   0.36515   0.84525   1.000
    O425    O    0.31741   0.13608   0.84181   1.000
    O426    O    0.54476   0.30546   0.87820   1.000
    O427    O    0.04463   0.19515   0.87838   1.000
    O428    O    0.29263   0.08441   0.87863   1.000
    O429    O    0.55282   0.02941   0.89006   1.000
    O430    O    0.05123   0.47095   0.89017   1.000
    O431    O    0.79142   0.41660   0.88200   1.000
    O432    O    0.56728   0.74758   0.88795   1.000
    O433    O    0.06887   0.75350   0.88820   1.000
    O434    O    0.65071   0.52003   0.91709   1.000
    O435    O    0.54497   0.45743   0.92360   1.000
    O436    O    0.54942   0.57210   0.94500   1.000
    O437    O    0.15154   0.98095   0.91731   1.000
    O438    O    0.04550   0.04320   0.92400   1.000
    O439    O    0.05009   0.92868   0.94536   1.000
    O440    O    0.76314   0.48674   0.91759   1.000
    O441    O    0.84294   0.46228   0.92646   1.000
    O442    O    0.26393   0.01421   0.91759   1.000
    O443    O    0.34394   0.03835   0.92638   1.000
    O444    O    0.52291   0.35210   0.92449   1.000
    O445    O    0.51678   0.27289   0.93172   1.000
    O446    O    0.02276   0.14831   0.92461   1.000
    O447    O    0.01615   0.22747   0.93180   1.000
    O448    O    0.56936   0.80224   0.91144   1.000
    O449    O    0.07046   0.69874   0.91158   1.000
    O450    O    0.55117   0.74303   0.94560   1.000
    O451    O    0.05219   0.75779   0.94577   1.000
    O452    O    0.45581   0.06062   0.93619   1.000
    O453    O    0.51364   0.16384   0.94127   1.000
    O454    O    0.95455   0.43968   0.93642   1.000
    O455    O    0.01238   0.33639   0.94130   1.000
    O456    O    0.25165   0.95210   0.95398   1.000
    O457    O    0.75131   0.54873   0.95433   1.000
    O458    O    0.37938   0.98923   0.96865   1.000
    O459    O    0.87872   0.51109   0.96918   1.000
    O460    O    0.52764   0.67209   0.98062   1.000
    O461    O    0.02813   0.82855   0.98068   1.000
    O462    O    0.32338   0.93584   0.98591   1.000
    O463    O    0.82316   0.56460   0.98645   1.000
loop_
    _geom_bond_atom_site_label_1
    _geom_bond_atom_site_label_2
    _geom_bond_distance
    _geom_bond_site_symmetry_2
    _ccdc_geom_bond_type
    Zr28   O208      0.51325  1_554   S
    Zr79   O208      0.51325      .   S
    Zr46   O209      0.51494  1_554   S
    Zr97   O209      0.51494      .   S
    Zr161  O210      0.66249      .   S
    Zr103  O210      0.66249      .   S
    Zr161  O211      0.69560      .   S
    Zr162  O211      0.69560      .   S
    Zr161  O212      1.02133  1_554   S
    Zr12   O212      1.02133      .   S
    Zr121  O213      0.66222      .   S
    Zr73   O213      0.66222      .   S
    Zr121  O214      0.69546      .   S
    Zr122  O214      0.69546  1_565   S
    Zr121  O215      1.01761  1_554   S
    Zr2    O215      1.01761      .   S
    Zr165  O216      0.67703      .   S
    Zr104  O216      0.67703      .   S
    Zr165  O217      1.03184      .   S
    Zr15   O217      1.03184      .   S
    Zr165  O218      0.69839  1_554   S
    Zr164  O218      0.69839  1_455   S
    Zr125  O219      0.67696      .   S
    Zr74   O219      0.67696      .   S
    Zr125  O220      1.03060      .   S
    Zr1    O220      1.03060      .   S
    Zr125  O221      0.69804  1_554   S
    Zr124  O221      0.69804      .   S
    Zr103  O222      0.68082      .   S
    Zr160  O222      0.68082      .   S
    Zr103  O223      0.54239      .   S
    Zr52   O223      0.54239  1_556   S
    Zr73   O224      0.68048      .   S
    Zr120  O224      0.68048      .   S
    Zr73   O225      0.54234      .   S
    Zr22   O225      0.54234  1_556   S
    Zr104  O226      0.67884      .   S
    Zr167  O226      0.67884      .   S
    Zr104  O227      0.68463  1_554   S
    Zr166  O227      0.68463  1_455   S
    Zr74   O228      0.67860      .   S
    Zr127  O228      0.67860      .   S
    Zr74   O229      0.68462  1_554   S
    Zr126  O229      0.68462      .   S
    Zr158  O230      1.04452      .   S
    Zr10   O230      1.04452      .   S
    Zr158  O231      0.67831      .   S
    Zr99   O231      0.67831      .   S
    Zr158  O232      0.68452      .   S
    Zr98   O232      0.68452  1_556   S
    Zr134  O233      1.04502      .   S
    Zr4    O233      1.04502      .   S
    Zr134  O234      0.67838      .   S
    Zr81   O234      0.67838      .   S
    Zr134  O235      0.68467  1_655   S
    Zr80   O235      0.68467  1_556   S
    Zr162  O236      1.00840      .   S
    Zr4    O236      1.00840  1_655   S
    Zr162  O237      0.67316      .   S
    Zr102  O237      0.67316      .   S
    Zr122  O238      1.00920      .   S
    Zr10   O238      1.00920      .   S
    Zr122  O239      0.67314      .   S
    Zr72   O239      0.67314      .   S
    Zr132  O240      0.66332      .   S
    Zr81   O240      0.66332      .   S
    Zr132  O241      1.00385      .   S
    Zr15   O241      1.00385  1_545   S
    Zr132  O242      0.69840  1_655   S
    Zr133  O242      0.69840  1_556   S
    Zr156  O243      0.66326      .   S
    Zr99   O243      0.66326      .   S
    Zr156  O244      1.00270      .   S
    Zr1    O244      1.00270      .   S
    Zr156  O245      0.69791      .   S
    Zr157  O245      0.69791  1_556   S
    Zr160  O246      0.68502      .   S
    Zr102  O246      0.68502      .   S
    Zr160  O247      1.02386      .   S
    Zr1    O247      1.02386      .   S
    Zr120  O248      0.68488  1_545   S
    Zr72   O248      0.68488      .   S
    Zr120  O249      1.01975      .   S
    Zr15   O249      1.01975      .   S
    Zr4    O250      1.13454      .   S
    Zr187  O250      1.13454      .   S
    Zr4    O251      1.04896      .   S
    Zr186  O251      1.04896      .   S
    Zr4    O252      1.02106      .   S
    Zr129  O252      1.02106  1_556   S
    Zr10   O253      1.13658      .   S
    Zr199  O253      1.13658  1_545   S
    Zr10   O254      1.04816      .   S
    Zr198  O254      1.04816      .   S
    Zr10   O255      1.01792      .   S
    Zr153  O255      1.01792  1_556   S
    Zr167  O256      0.51258      .   S
    Zr57   O256      0.51258      .   S
    Zr167  O257      0.51218      .   S
    Zr56   O257      0.51218      .   S
    Zr127  O258      0.51238      .   S
    Zr27   O258      0.51238      .   S
    Zr127  O259      0.51214      .   S
    Zr26   O259      0.51214      .   S
    Zr81   O260      0.54092      .   S
    Zr29   O260      0.54092      .   S
    Zr99   O261      0.54083      .   S
    Zr47   O261      0.54083      .   S
    Zr102  O262      0.68073      .   S
    Zr163  O262      0.68073      .   S
    Zr72   O263      0.68068      .   S
    Zr123  O263      0.68068      .   S
    Zr1    O264      1.01332      .   S
    Zr176  O264      1.01332      .   S
    Zr15   O265      1.01342      .   S
    Zr204  O265      1.01342      .   S
    Zr163  O266      0.51145      .   S
    Zr54   O266      0.51145      .   S
    Zr163  O267      0.51560      .   S
    Zr55   O267      0.51560      .   S
    Zr123  O268      0.51139      .   S
    Zr24   O268      0.51139      .   S
    Zr123  O269      0.51556      .   S
    Zr25   O269      0.51556      .   S
    Zr187  O270      0.63427      .   S
    Zr76   O270      0.63427      .   S
    Zr199  O271      0.63421      .   S
    Zr94   O271      0.63421      .   S
    Zr204  O272      0.63466      .   S
    Zr107  O272      0.63466      .   S
    Zr176  O273      0.63474      .   S
    Zr65   O273      0.63474      .   S
    Zr198  O274      0.63348      .   S
    Zr95   O274      0.63348      .   S
    Zr186  O275      0.63394      .   S
    Zr77   O275      0.63394      .   S
    Zr76   O276      0.77404      .   S
    Zr77   O276      0.77404      .   S
    Zr76   O277      0.63102      .   S
    Zr185  O277      0.63102      .   S
    Zr94   O278      0.77405  1_545   S
    Zr95   O278      0.77405      .   S
    Zr94   O279      0.63118      .   S
    Zr197  O279      0.63118      .   S
    Zr177  O280      0.63110      .   S
    Zr64   O280      0.63110      .   S
    Zr205  O281      0.63114      .   S
    Zr106  O281      0.63114      .   S
    Zr77   O282      0.63406      .   S
    Zr184  O282      0.63406      .   S
    Zr95   O283      0.63468      .   S
    Zr196  O283      0.63468      .   S
    Zr65   O284      0.77411      .   S
    Zr64   O284      0.77411      .   S
    Zr65   O285      0.63345      .   S
    Zr178  O285      0.63345      .   S
    Zr107  O286      0.77396      .   S
    Zr106  O286      0.77396  1_565   S
    Zr107  O287      0.63370      .   S
    Zr206  O287      0.63370      .   S
    Zr64   O288      0.63421      .   S
    Zr179  O288      0.63421      .   S
    Zr106  O289      0.63419      .   S
    Zr207  O289      0.63419      .   S
    Zr206  O290      1.04908      .   S
    Zr14   O290      1.04908      .   S
    Zr178  O291      1.04840      .   S
    Zr0    O291      1.04840      .   S
    Zr184  O292      1.01333      .   S
    Zr5    O292      1.01333      .   S
    Zr196  O293      1.01363      .   S
    Zr11   O293      1.01363      .   S
    Zr43   O294      0.51542      .   S
    Zr147  O294      0.51542      .   S
    Zr37   O295      0.51540      .   S
    Zr139  O295      0.51540      .   S
    Zr42   O296      0.51148      .   S
    Zr147  O296      0.51148      .   S
    Zr36   O297      0.51149      .   S
    Zr139  O297      0.51149      .   S
    Zr17   O298      0.54635      .   S
    Zr69   O298      0.54635      .   S
    Zr59   O299      0.54167      .   S
    Zr111  O299      0.54167      .   S
    Zr179  O300      1.13534      .   S
    Zr0    O300      1.13534      .   S
    Zr207  O301      1.13548  1_565   S
    Zr14   O301      1.13548      .   S
    Zr147  O302      0.68092      .   S
    Zr90   O302      0.68092      .   S
    Zr139  O303      0.68097      .   S
    Zr84   O303      0.68097      .   S
    Zr44   O304      0.51208      .   S
    Zr151  O304      0.51208      .   S
    Zr38   O305      0.51209      .   S
    Zr143  O305      0.51209      .   S
    Zr5    O306      1.01967      .   S
    Zr144  O306      1.01967      .   S
    Zr5    O307      1.00368      .   S
    Zr172  O307      1.00368      .   S
    Zr5    O308      1.03213      .   S
    Zr141  O308      1.03213      .   S
    Zr11   O309      1.02382      .   S
    Zr136  O309      1.02382      .   S
    Zr11   O310      1.00349  1_565   S
    Zr116  O310      1.00349      .   S
    Zr11   O311      1.02999      .   S
    Zr149  O311      1.02999      .   S
    Zr90   O312      0.68487      .   S
    Zr144  O312      0.68487      .   S
    Zr90   O313      0.67319      .   S
    Zr146  O313      0.67319      .   S
    Zr84   O314      0.68503      .   S
    Zr136  O314      0.68503  1_565   S
    Zr84   O315      0.67319      .   S
    Zr138  O315      0.67319      .   S
    Zr111  O316      0.66333      .   S
    Zr172  O316      0.66333      .   S
    Zr111  O317      0.67836      .   S
    Zr174  O317      0.67836      .   S
    Zr69   O318      0.66322      .   S
    Zr116  O318      0.66322      .   S
    Zr69   O319      0.67832      .   S
    Zr118  O319      0.67832      .   S
    Zr45   O320      0.51237      .   S
    Zr151  O320      0.51237      .   S
    Zr39   O321      0.51256      .   S
    Zr143  O321      0.51256      .   S
    Zr151  O322      0.67851      .   S
    Zr92   O322      0.67851      .   S
    Zr143  O323      0.67885      .   S
    Zr86   O323      0.67885      .   S
    Zr0    O324      1.00886      .   S
    Zr146  O324      1.00886      .   S
    Zr0    O325      1.04501      .   S
    Zr118  O325      1.04501      .   S
    Zr0    O326      1.01734      .   S
    Zr113  O326      1.01734      .   S
    Zr14   O327      1.00841  1_655   S
    Zr138  O327      1.00841      .   S
    Zr14   O328      1.04526      .   S
    Zr174  O328      1.04526      .   S
    Zr14   O329      1.02104      .   S
    Zr169  O329      1.02104      .   S
    Zr144  O330      0.68055      .   S
    Zr91   O330      0.68055      .   S
    Zr136  O331      0.68080      .   S
    Zr85   O331      0.68080      .   S
    Zr172  O332      0.69838  1_655   S
    Zr173  O332      0.69838      .   S
    Zr116  O333      0.69806      .   S
    Zr117  O333      0.69806      .   S
    Zr146  O334      0.69552      .   S
    Zr145  O334      0.69552      .   S
    Zr138  O335      0.69558  1_545   S
    Zr137  O335      0.69558      .   S
    Zr174  O336      0.68474  1_655   S
    Zr110  O336      0.68474      .   S
    Zr118  O337      0.68446      .   S
    Zr68   O337      0.68446      .   S
    Zr92   O338      0.67701      .   S
    Zr149  O338      0.67701      .   S
    Zr92   O339      0.68470      .   S
    Zr150  O339      0.68470      .   S
    Zr86   O340      0.67702      .   S
    Zr141  O340      0.67702      .   S
    Zr86   O341      0.68475      .   S
    Zr142  O341      0.68475  1_455   S
    Zr91   O342      0.66218      .   S
    Zr145  O342      0.66218      .   S
    Zr91   O343      0.54238      .   S
    Zr40   O343      0.54238      .   S
    Zr85   O344      0.66250      .   S
    Zr137  O344      0.66250      .   S
    Zr85   O345      0.54241      .   S
    Zr34   O345      0.54241      .   S
    Zr149  O346      0.69827      .   S
    Zr148  O346      0.69827      .   S
    Zr141  O347      0.69837      .   S
    Zr140  O347      0.69837  1_455   S
    Zr58   O348      0.54238      .   S
    Zr109  O348      0.54238      .   S
    Zr145  O349      1.02009      .   S
    Zr8    O349      1.02009      .   S
    Zr16   O350      0.54233      .   S
    Zr67   O350      0.54233      .   S
    Zr137  O351      1.02130      .   S
    Zr6    O351      1.02130      .   S
    Zr169  O352      0.66249      .   S
    Zr109  O352      0.66249      .   S
    Zr169  O353      0.69554      .   S
    Zr170  O353      0.69554  1_565   S
    Zr113  O354      0.66233      .   S
    Zr67   O354      0.66233      .   S
    Zr113  O355      0.69597      .   S
    Zr114  O355      0.69597      .   S
    Zr173  O356      0.67699      .   S
    Zr110  O356      0.67699      .   S
    Zr173  O357      1.03249      .   S
    Zr13   O357      1.03249      .   S
    Zr117  O358      0.67694      .   S
    Zr68   O358      0.67694      .   S
    Zr117  O359      1.03008      .   S
    Zr3    O359      1.03008      .   S
    Zr109  O360      0.68078      .   S
    Zr168  O360      0.68078      .   S
    Zr67   O361      0.68044      .   S
    Zr112  O361      0.68044      .   S
    Zr110  O362      0.67882      .   S
    Zr175  O362      0.67882      .   S
    Zr68   O363      0.67893      .   S
    Zr119  O363      0.67893      .   S
    Zr150  O364      1.04453      .   S
    Zr8    O364      1.04453      .   S
    Zr150  O365      0.67826      .   S
    Zr93   O365      0.67826      .   S
    Zr142  O366      1.04472      .   S
    Zr6    O366      1.04472      .   S
    Zr142  O367      0.67838      .   S
    Zr87   O367      0.67838      .   S
    Zr170  O368      1.00850      .   S
    Zr6    O368      1.00850  1_455   S
    Zr170  O369      0.67197      .   S
    Zr108  O369      0.67197      .   S
    Zr114  O370      1.00944      .   S
    Zr8    O370      1.00944      .   S
    Zr114  O371      0.67322      .   S
    Zr66   O371      0.67322      .   S
    Zr148  O372      0.66321      .   S
    Zr93   O372      0.66321      .   S
    Zr148  O373      1.00267      .   S
    Zr3    O373      1.00267  1_545   S
    Zr140  O374      0.66330      .   S
    Zr87   O374      0.66330      .   S
    Zr140  O375      1.00369      .   S
    Zr13   O375      1.00369      .   S
    Zr168  O376      0.68439  1_545   S
    Zr108  O376      0.68439      .   S
    Zr168  O377      1.02372      .   S
    Zr3    O377      1.02372      .   S
    Zr112  O378      0.68490      .   S
    Zr66   O378      0.68490      .   S
    Zr112  O379      1.01886      .   S
    Zr13   O379      1.01886      .   S
    Zr6    O380      1.13563      .   S
    Zr191  O380      1.13563  1_545   S
    Zr6    O381      1.05585      .   S
    Zr190  O381      1.05585      .   S
    Zr8    O382      1.12090      .   S
    Zr195  O382      1.12090      .   S
    Zr8    O383      1.05599      .   S
    Zr194  O383      1.05599      .   S
    Zr175  O384      0.51253      .   S
    Zr63   O384      0.51253      .   S
    Zr175  O385      0.51195      .   S
    Zr62   O385      0.51195      .   S
    Zr119  O386      0.51214      .   S
    Zr21   O386      0.51214      .   S
    Zr119  O387      0.51208      .   S
    Zr20   O387      0.51208      .   S
    Zr108  O388      0.68254      .   S
    Zr171  O388      0.68254      .   S
    Zr93   O389      0.54085      .   S
    Zr41   O389      0.54085      .   S
    Zr87   O390      0.54098      .   S
    Zr35   O390      0.54098      .   S
    Zr66   O391      0.68083      .   S
    Zr115  O391      0.68083      .   S
    Zr13   O392      1.01338      .   S
    Zr200  O392      1.01338      .   S
    Zr3    O393      1.01344      .   S
    Zr180  O393      1.01344      .   S
    Zr115  O394      0.51149      .   S
    Zr18   O394      0.51149      .   S
    Zr115  O395      0.51540      .   S
    Zr19   O395      0.51540      .   S
    Zr171  O396      0.51130      .   S
    Zr60   O396      0.51130      .   S
    Zr171  O397      0.51535      .   S
    Zr61   O397      0.51535      .   S
    Zr191  O398      0.63411      .   S
    Zr82   O398      0.63411      .   S
    Zr195  O399      0.63458      .   S
    Zr88   O399      0.63458      .   S
    Zr200  O400      0.63464      .   S
    Zr101  O400      0.63464      .   S
    Zr180  O401      0.63471      .   S
    Zr71   O401      0.63471      .   S
    Zr190  O402      0.65328      .   S
    Zr83   O402      0.65328      .   S
    Zr194  O403      0.63273      .   S
    Zr89   O403      0.63273      .   S
    Zr82   O404      0.77392  1_545   S
    Zr83   O404      0.77392      .   S
    Zr82   O405      0.63088      .   S
    Zr189  O405      0.63088      .   S
    Zr88   O406      0.77278      .   S
    Zr89   O406      0.77278      .   S
    Zr88   O407      0.63082      .   S
    Zr193  O407      0.63082      .   S
    Zr181  O408      0.63106      .   S
    Zr70   O408      0.63106      .   S
    Zr201  O409      0.63112      .   S
    Zr100  O409      0.63112      .   S
    Zr83   O410      0.63463      .   S
    Zr188  O410      0.63463      .   S
    Zr89   O411      0.63517      .   S
    Zr192  O411      0.63517      .   S
    Zr101  O412      0.77400      .   S
    Zr100  O412      0.77400      .   S
    Zr101  O413      0.65332      .   S
    Zr202  O413      0.65332      .   S
    Zr71   O414      0.77407      .   S
    Zr70   O414      0.77407  1_565   S
    Zr71   O415      0.63351      .   S
    Zr182  O415      0.63351      .   S
    Zr70   O416      0.63420      .   S
    Zr183  O416      0.63420      .   S
    Zr100  O417      0.63418      .   S
    Zr203  O417      0.63418      .   S
    Zr202  O418      1.05625      .   S
    Zr12   O418      1.05625      .   S
    Zr182  O419      1.04823      .   S
    Zr2    O419      1.04823      .   S
    Zr188  O420      1.01367      .   S
    Zr7    O420      1.01367      .   S
    Zr192  O421      1.01081      .   S
    Zr9    O421      1.01081      .   S
    Zr31   O422      0.51532      .   S
    Zr131  O422      0.51532      .   S
    Zr49   O423      0.47872      .   S
    Zr155  O423      0.47872      .   S
    Zr30   O424      0.51149      .   S
    Zr131  O424      0.51149      .   S
    Zr48   O425      0.49127      .   S
    Zr155  O425      0.49127      .   S
    Zr23   O426      0.54092      .   S
    Zr75   O426      0.54092      .   S
    Zr53   O427      0.54098      .   S
    Zr105  O427      0.54098      .   S
    Zr155  O428      0.71958      .   S
    Zr96   O428      0.71958      .   S
    Zr183  O429      1.13594  1_565   S
    Zr2    O429      1.13594      .   S
    Zr203  O430      1.13475      .   S
    Zr12   O430      1.13475      .   S
    Zr131  O431      0.67842      .   S
    Zr78   O431      0.67842      .   S
    Zr50   O432      0.51209      .   S
    Zr159  O432      0.51209      .   S
    Zr32   O433      0.51216      .   S
    Zr135  O433      0.51216      .   S
    Zr9    O434      1.02464      .   S
    Zr128  O434      1.02464      .   S
    Zr9    O435      1.00428      .   S
    Zr124  O435      1.00428      .   S
    Zr9    O436      1.03381      .   S
    Zr157  O436      1.03381      .   S
    Zr7    O437      1.01979      .   S
    Zr152  O437      1.01979      .   S
    Zr7    O438      1.00381  1_565   S
    Zr164  O438      1.00381      .   S
    Zr7    O439      1.03210      .   S
    Zr133  O439      1.03210      .   S
    Zr78   O440      0.68606      .   S
    Zr128  O440      0.68606      .   S
    Zr78   O441      0.67521      .   S
    Zr130  O441      0.67521      .   S
    Zr96   O442      0.68488      .   S
    Zr152  O442      0.68488  1_565   S
    Zr96   O443      0.67320      .   S
    Zr154  O443      0.67320      .   S
    Zr75   O444      0.66324      .   S
    Zr124  O444      0.66324      .   S
    Zr75   O445      0.67840      .   S
    Zr126  O445      0.67840      .   S
    Zr105  O446      0.66327      .   S
    Zr164  O446      0.66327      .   S
    Zr105  O447      0.67841      .   S
    Zr166  O447      0.67841      .   S
    Zr51   O448      0.51239      .   S
    Zr159  O448      0.51239      .   S
    Zr33   O449      0.51255      .   S
    Zr135  O449      0.51255      .   S
    Zr159  O450      0.67867      .   S
    Zr98   O450      0.67867      .   S
    Zr135  O451      0.67886      .   S
    Zr80   O451      0.67886      .   S
    Zr2    O452      1.00903      .   S
    Zr154  O452      1.00903      .   S
    Zr2    O453      1.04592      .   S
    Zr126  O453      1.04592      .   S
    Zr12   O454      1.00854  1_455   S
    Zr130  O454      1.00854      .   S
    Zr12   O455      1.04462      .   S
    Zr166  O455      1.04462      .   S
    Zr152  O456      0.68043      .   S
    Zr97   O456      0.68043      .   S
    Zr128  O457      0.68079      .   S
    Zr79   O457      0.68079      .   S
    Zr154  O458      0.69529  1_545   S
    Zr153  O458      0.69529      .   S
    Zr130  O459      0.69558      .   S
    Zr129  O459      0.69558      .   S
    Zr98   O460      0.67691      .   S
    Zr157  O460      0.67691      .   S
    Zr80   O461      0.67706      .   S
    Zr133  O461      0.67706      .   S
    Zr97   O462      0.66216      .   S
    Zr153  O462      0.66216      .   S
    Zr79   O463      0.66248      .   S
    Zr129  O463      0.66248      .   S
