# CIF file generated by openbabel 2.4.90, see http://openbabel.sf.net
data_I
_chemical_name_common ''
_cell_length_a 15.976
_cell_length_b 19.736
_cell_length_c 13.545
_cell_angle_alpha 109.661
_cell_angle_beta 105.44
_cell_angle_gamma 94.817
_space_group_name_H-M_alt 'P 1'
_space_group_name_Hall 'P 1'
loop_
    _symmetry_equiv_pos_as_xyz
    x,y,z
loop_
    _atom_site_label
    _atom_site_type_symbol
    _atom_site_fract_x
    _atom_site_fract_y
    _atom_site_fract_z
    _atom_site_occupancy
    H0      H    0.03663   0.42535   0.61367   1.000
    H1      H    0.03674   0.92550   0.61364   1.000
    H2      H    0.53663   0.42535   0.61368   1.000
    H3      H    0.53673   0.92551   0.61364   1.000
    H4      H    0.30331   0.42890   0.63743   1.000
    H5      H    0.30356   0.92926   0.63812   1.000
    H6      H    0.80331   0.42890   0.63740   1.000
    H7      H    0.80356   0.92926   0.63812   1.000
    H8      H    0.01554   0.13858   0.63683   1.000
    H9      H    0.01562   0.63840   0.63664   1.000
    H10     H    0.51553   0.13858   0.63684   1.000
    H11     H    0.51561   0.63840   0.63660   1.000
    H12     H    0.27004   0.13027   0.61228   1.000
    H13     H    0.27040   0.63052   0.61292   1.000
    H14     H    0.77003   0.13027   0.61228   1.000
    H15     H    0.77039   0.63052   0.61292   1.000
    H16     H    0.46327   0.07449   0.38643   1.000
    H17     H    0.46337   0.57464   0.38640   1.000
    H18     H    0.96326   0.07448   0.38642   1.000
    H19     H    0.96336   0.57464   0.38639   1.000
    H20     H    0.19643   0.07072   0.36189   1.000
    H21     H    0.19668   0.57108   0.36257   1.000
    H22     H    0.69642   0.07071   0.36190   1.000
    H23     H    0.69667   0.57107   0.36258   1.000
    H24     H    0.48439   0.36159   0.36344   1.000
    H25     H    0.48447   0.86141   0.36325   1.000
    H26     H    0.98438   0.36159   0.36343   1.000
    H27     H    0.98446   0.86140   0.36320   1.000
    H28     H    0.22960   0.36945   0.38709   1.000
    H29     H    0.22995   0.86971   0.38774   1.000
    H30     H    0.72958   0.36945   0.38708   1.000
    H31     H    0.72994   0.86970   0.38773   1.000
    C32     C    0.09713   0.40751   0.60289   1.000
    C33     C    0.09730   0.90772   0.60307   1.000
    C34     C    0.59712   0.40751   0.60290   1.000
    C35     C    0.59730   0.90772   0.60307   1.000
    C36     C    0.23281   0.40974   0.61626   1.000
    C37     C    0.23305   0.91005   0.61680   1.000
    C38     C    0.73281   0.40975   0.61626   1.000
    C39     C    0.73305   0.91005   0.61680   1.000
    C40     C    0.07531   0.14726   0.61552   1.000
    C41     C    0.07549   0.64722   0.61558   1.000
    C42     C    0.57531   0.14726   0.61552   1.000
    C43     C    0.57548   0.64722   0.61559   1.000
    C44     C    0.20415   0.14279   0.60174   1.000
    C45     C    0.20447   0.64297   0.60223   1.000
    C46     C    0.70415   0.14279   0.60170   1.000
    C47     C    0.70446   0.64297   0.60223   1.000
    C48     C    0.09568   0.02448   0.85765   1.000
    C49     C    0.09563   0.52431   0.85751   1.000
    C50     C    0.59567   0.02447   0.85765   1.000
    C51     C    0.59562   0.52431   0.85752   1.000
    N52     N    0.64659   0.61738   0.64375   1.000
    N53     N    0.39642   0.16162   0.44957   1.000
    N54     N    0.39671   0.66182   0.44994   1.000
    N55     N    0.89641   0.16162   0.44957   1.000
    C56     C    0.33288   0.15460   0.85816   1.000
    C57     C    0.33277   0.65446   0.85848   1.000
    C58     C    0.83288   0.15460   0.85817   1.000
    C59     C    0.83277   0.65446   0.85848   1.000
    C60     C    0.40270   0.09227   0.39698   1.000
    C61     C    0.40287   0.59247   0.39716   1.000
    C62     C    0.90269   0.09227   0.39698   1.000
    C63     C    0.90286   0.59247   0.39716   1.000
    C64     C    0.26694   0.08993   0.38323   1.000
    C65     C    0.26719   0.59023   0.38376   1.000
    C66     C    0.76693   0.08992   0.38323   1.000
    C67     C    0.76718   0.59023   0.38376   1.000
    C68     C    0.42452   0.35277   0.38448   1.000
    C69     C    0.42469   0.85273   0.38454   1.000
    C70     C    0.92450   0.35277   0.38447   1.000
    C71     C    0.92468   0.85272   0.38450   1.000
    C72     C    0.29552   0.35701   0.39780   1.000
    C73     C    0.29584   0.85719   0.39829   1.000
    C74     C    0.79551   0.35700   0.39779   1.000
    C75     C    0.79583   0.85718   0.39828   1.000
    C76     C    0.40436   0.47568   0.14251   1.000
    C77     C    0.40431   0.97552   0.14238   1.000
    C78     C    0.90436   0.47568   0.14250   1.000
    C79     C    0.90430   0.97551   0.14238   1.000
    C80     C    0.16724   0.34553   0.14154   1.000
    C81     C    0.16713   0.84539   0.14186   1.000
    C82     C    0.66723   0.34553   0.14154   1.000
    C83     C    0.66711   0.84540   0.14185   1.000
    N84     N    0.10328   0.33816   0.55011   1.000
    N85     N    0.10357   0.83836   0.55048   1.000
    N86     N    0.60328   0.33816   0.55011   1.000
    N87     N    0.60357   0.83836   0.55048   1.000
    N88     N    0.19199   0.33949   0.55894   1.000
    N89     N    0.19233   0.83977   0.55954   1.000
    N90     N    0.69198   0.33950   0.55894   1.000
    N91     N    0.69232   0.83977   0.55955   1.000
    N92     N    0.17597   0.45360   0.64460   1.000
    N93     N    0.17611   0.95386   0.64494   1.000
    N94     N    0.67597   0.45360   0.64467   1.000
    N95     N    0.67610   0.95386   0.64494   1.000
    N96     N    0.08726   0.18919   0.55835   1.000
    N97     N    0.08755   0.68931   0.55867   1.000
    N98     N    0.58725   0.18919   0.55835   1.000
    N99     N    0.58754   0.68931   0.55868   1.000
    N100    N    0.17145   0.18611   0.54925   1.000
    N101    N    0.17183   0.68637   0.54985   1.000
    N102    N    0.67144   0.18611   0.54925   1.000
    N103    N    0.67182   0.68637   0.54985   1.000
    N104    N    0.14641   0.11739   0.64300   1.000
    N105    N    0.14660   0.61738   0.64375   1.000
    N106    N    0.64641   0.11739   0.64360   1.000
    N107    N    0.89670   0.66182   0.44994   1.000
    N108    N    0.30766   0.16021   0.44049   1.000
    N109    N    0.30800   0.66048   0.44109   1.000
    N110    N    0.80765   0.16021   0.44049   1.000
    N111    N    0.80799   0.66048   0.44109   1.000
    N112    N    0.32389   0.04612   0.35510   1.000
    N113    N    0.32403   0.54638   0.35537   1.000
    N114    N    0.82388   0.04612   0.35510   1.000
    N115    N    0.82402   0.54638   0.35537   1.000
    N116    N    0.41245   0.31068   0.44138   1.000
    N117    N    0.41274   0.81079   0.44171   1.000
    N118    N    0.91244   0.31067   0.44138   1.000
    N119    N    0.91272   0.81079   0.44170   1.000
    N120    N    0.32816   0.31361   0.45018   1.000
    N121    N    0.32854   0.81387   0.45079   1.000
    N122    N    0.82815   0.31361   0.45018   1.000
    N123    N    0.82853   0.81386   0.45078   1.000
    N124    N    0.35341   0.38261   0.35630   1.000
    N125    N    0.35359   0.88260   0.35645   1.000
    N126    N    0.85339   0.38260   0.35629   1.000
    N127    N    0.85358   0.88259   0.35644   1.000
    O128    O    0.05602   0.03792   0.77195   1.000
    O129    O    0.05597   0.53776   0.77182   1.000
    O130    O    0.55601   0.03792   0.77195   1.000
    O131    O    0.55597   0.53776   0.77182   1.000
    O132    O    0.17856   0.02444   0.88287   1.000
    O133    O    0.17850   0.52422   0.88269   1.000
    O134    O    0.67855   0.02444   0.88287   1.000
    O135    O    0.67849   0.52422   0.88270   1.000
    O136    O    0.32968   0.09812   0.77315   1.000
    O137    O    0.32958   0.59793   0.77349   1.000
    O138    O    0.82968   0.09812   0.77315   1.000
    O139    O    0.82958   0.59793   0.77349   1.000
    O140    O    0.26257   0.16733   0.88278   1.000
    O141    O    0.26245   0.66725   0.88297   1.000
    O142    O    0.76257   0.16732   0.88279   1.000
    O143    O    0.76244   0.66725   0.88290   1.000
    O144    O    0.44402   0.46222   0.22820   1.000
    O145    O    0.44397   0.96205   0.22807   1.000
    O146    O    0.94401   0.46222   0.22820   1.000
    O147    O    0.94396   0.96206   0.22807   1.000
    O148    O    0.32149   0.47578   0.11734   1.000
    O149    O    0.32144   0.97556   0.11716   1.000
    O150    O    0.82149   0.47578   0.11734   1.000
    O151    O    0.82143   0.97556   0.11716   1.000
    O152    O    0.17042   0.40205   0.22653   1.000
    O153    O    0.17032   0.90187   0.22688   1.000
    O154    O    0.67041   0.40205   0.22653   1.000
    O155    O    0.67031   0.90187   0.22688   1.000
    O156    O    0.23757   0.33274   0.11706   1.000
    O157    O    0.23744   0.83266   0.11726   1.000
    O158    O    0.73756   0.33274   0.11705   1.000
    O159    O    0.73743   0.83266   0.11725   1.000
loop_
    _geom_bond_atom_site_label_1
    _geom_bond_atom_site_label_2
    _geom_bond_distance
    _geom_bond_site_symmetry_2
    _ccdc_geom_bond_type
    O158   C82       1.27513      .   S
    O156   C80       1.27509      .   S
    O149   C77       1.27647      .   S
    O151   C79       1.27646      .   S
    O159   C83       1.27535      .   S
    O157   C81       1.27536      .   S
    O148   C76       1.27654      .   S
    O150   C78       1.27655      .   S
    C80    O152      1.29127      .   S
    C82    O154      1.29128      .   S
    C83    O155      1.29100      .   S
    C81    O153      1.29101      .   S
    C77    O145      1.28973      .   S
    C79    O147      1.28966      .   S
    C78    O146      1.28983      .   S
    C76    O144      1.28964      .   S
    N112   C64       1.34746      .   S
    N112   C60       1.34756      .   S
    N114   C66       1.34745      .   S
    N114   C62       1.34755      .   S
    N113   C65       1.34747      .   S
    N113   C61       1.34757      .   S
    N115   C67       1.34747      .   S
    N115   C63       1.34757      .   S
    N126   C70       1.34750      .   S
    N126   C74       1.34752      .   S
    N124   C68       1.34750      .   S
    N124   C72       1.34752      .   S
    N127   C71       1.34743      .   S
    N127   C75       1.34749      .   S
    N125   C69       1.34750      .   S
    N125   C73       1.34754      .   S
    H20    C64       1.08508      .   S
    H22    C66       1.08509      .   S
    H21    C65       1.08506      .   S
    H23    C67       1.08508      .   S
    H27    C71       1.08505      .   S
    H25    C69       1.08499      .   S
    H26    C70       1.08499      .   S
    H24    C68       1.08499      .   S
    C66    N110      1.34335      .   S
    C64    N108      1.34334      .   S
    C67    N111      1.34337      .   S
    C65    N109      1.34337      .   S
    C70    N118      1.34338      .   S
    C68    N116      1.34328      .   S
    C71    N119      1.34362      .   S
    C69    N117      1.34333      .   S
    H19    C63       1.08490      .   S
    H17    C61       1.08487      .   S
    H18    C62       1.08486      .   S
    H16    C60       1.08483      .   S
    H30    C74       1.08481      .   S
    H28    C72       1.08480      .   S
    H31    C75       1.08479      .   S
    H29    C73       1.08481      .   S
    C62    N55       1.34012      .   S
    C60    N53       1.34010      .   S
    C63    N107      1.34011      .   S
    C61    N54       1.34011      .   S
    C74    N122      1.34010      .   S
    C72    N120      1.34003      .   S
    C75    N123      1.34011      .   S
    C73    N121      1.34011      .   S
    N110   N55       1.38735      .   S
    N108   N53       1.38735      .   S
    N111   N107      1.38730      .   S
    N109   N54       1.38731      .   S
    N118   N122      1.38739      .   S
    N116   N120      1.38737      .   S
    N119   N123      1.38738      .   S
    N117   N121      1.38738      .   S
    N100   N96       1.38739      .   S
    N100   C44       1.34006      .   S
    N102   N98       1.38739      .   S
    N102   C46       1.33972      .   S
    N101   N97       1.38738      .   S
    N101   C45       1.34008      .   S
    N103   N99       1.38743      .   S
    N103   C47       1.34008      .   S
    N84    N88       1.38731      .   S
    N84    C32       1.34009      .   S
    N86    N90       1.38731      .   S
    N86    C34       1.34012      .   S
    N85    N89       1.38736      .   S
    N85    C33       1.34010      .   S
    N87    N91       1.38734      .   S
    N87    C35       1.34009      .   S
    N96    C40       1.34327      .   S
    N98    C42       1.34325      .   S
    N97    C41       1.34332      .   S
    N99    C43       1.34332      .   S
    N90    C38       1.34336      .   S
    N88    C36       1.34334      .   S
    N89    C37       1.34334      .   S
    N91    C39       1.34333      .   S
    C46    H14       1.08477      .   S
    C46    N106      1.34794      .   S
    C44    H12       1.08480      .   S
    C44    N104      1.34166      .   S
    C45    H13       1.08481      .   S
    C45    N105      1.34755      .   S
    C47    H15       1.08480      .   S
    C47    N52       1.34754      .   S
    C32    H0        1.08490      .   S
    C32    N92       1.34762      .   S
    C34    H2        1.08488      .   S
    C34    N94       1.34760      .   S
    C33    H1        1.08487      .   S
    C33    N93       1.34756      .   S
    C35    H3        1.08485      .   S
    C35    N95       1.34756      .   S
    C40    H8        1.08504      .   S
    C40    N104      1.34586      .   S
    C42    H10       1.08510      .   S
    C42    N106      1.34753      .   S
    C41    H9        1.08505      .   S
    C41    N105      1.34752      .   S
    C43    H11       1.08466      .   S
    C43    N52       1.34747      .   S
    C36    H4        1.08507      .   S
    C36    N92       1.34725      .   S
    C38    H6        1.08512      .   S
    C38    N94       1.34747      .   S
    C37    H5        1.08509      .   S
    C37    N93       1.34745      .   S
    C39    H7        1.08510      .   S
    C39    N95       1.34745      .   S
    O129   C49       1.28959      .   S
    O131   C51       1.28963      .   S
    O128   C48       1.28964      .   S
    O130   C50       1.28972      .   S
    O136   C56       1.29094      .   S
    O138   C58       1.29095      .   S
    O137   C57       1.29127      .   S
    O139   C59       1.29130      .   S
    C49    O133      1.27656      .   S
    C51    O135      1.27656      .   S
    C50    O134      1.27648      .   S
    C48    O132      1.27650      .   S
    C56    O140      1.27540      .   S
    C58    O142      1.27541      .   S
    C59    O143      1.27467      .   S
    C57    O141      1.27511      .   S
