# CIF file generated by openbabel 2.4.90, see http://openbabel.sf.net
data_I
_chemical_name_common ''
_cell_length_a 15.976
_cell_length_b 19.736
_cell_length_c 13.545
_cell_angle_alpha 109.661
_cell_angle_beta 105.44
_cell_angle_gamma 94.817
_space_group_name_H-M_alt 'P 1'
_space_group_name_Hall 'P 1'
loop_
    _symmetry_equiv_pos_as_xyz
    x,y,z
loop_
    _atom_site_label
    _atom_site_type_symbol
    _atom_site_fract_x
    _atom_site_fract_y
    _atom_site_fract_z
    _atom_site_occupancy
    Zn0     Zn   0.19028   0.56433   0.75929   1.000
    Zn1     Zn   0.69023   0.06458   0.75938   1.000
    Zn2     Zn   0.69027   0.56434   0.75929   1.000
    Zn3     Zn   0.30974   0.43564   0.24075   1.000
    Zn4     Zn   0.30978   0.93540   0.24067   1.000
    Zn5     Zn   0.80973   0.43565   0.24075   1.000
    Zn6     Zn   0.80977   0.93540   0.24066   1.000
    Zn7     Zn   0.99985   0.24990   0.49980   1.000
    Zn8     Zn   0.00015   0.75008   0.50026   1.000
    Zn9     Zn   0.49984   0.24990   0.49981   1.000
    Zn10    Zn   0.50015   0.75009   0.50020   1.000
    Zn11    Zn   0.24980   0.24982   0.49963   1.000
    Zn12    Zn   0.25018   0.75016   0.50040   1.000
    Zn13    Zn   0.74979   0.24982   0.49963   1.000
    Zn14    Zn   0.75017   0.75015   0.50041   1.000
    H15     H    0.03663   0.42535   0.61367   1.000
    H16     H    0.03674   0.92550   0.61364   1.000
    H17     H    0.53663   0.42535   0.61368   1.000
    H18     H    0.53673   0.92551   0.61364   1.000
    H19     H    0.30331   0.42890   0.63743   1.000
    H20     H    0.30356   0.92926   0.63812   1.000
    H21     H    0.80331   0.42890   0.63740   1.000
    H22     H    0.80356   0.92926   0.63812   1.000
    H23     H    0.01554   0.13858   0.63683   1.000
    H24     H    0.01562   0.63840   0.63664   1.000
    H25     H    0.51553   0.13858   0.63684   1.000
    H26     H    0.51561   0.63840   0.63660   1.000
    H27     H    0.27004   0.13027   0.61228   1.000
    H28     H    0.27040   0.63052   0.61292   1.000
    H29     H    0.77003   0.13027   0.61228   1.000
    H30     H    0.77039   0.63052   0.61292   1.000
    Zn31    Zn   0.19023   0.06458   0.75938   1.000
    H32     H    0.46327   0.07449   0.38643   1.000
    H33     H    0.46337   0.57464   0.38640   1.000
    H34     H    0.96326   0.07448   0.38642   1.000
    H35     H    0.96336   0.57464   0.38639   1.000
    H36     H    0.19643   0.07072   0.36189   1.000
    H37     H    0.19668   0.57108   0.36257   1.000
    H38     H    0.69642   0.07071   0.36190   1.000
    H39     H    0.69667   0.57107   0.36258   1.000
    H40     H    0.48439   0.36159   0.36344   1.000
    H41     H    0.48447   0.86141   0.36325   1.000
    H42     H    0.98438   0.36159   0.36343   1.000
    H43     H    0.98446   0.86140   0.36320   1.000
    H44     H    0.22960   0.36945   0.38709   1.000
    H45     H    0.22995   0.86971   0.38774   1.000
    H46     H    0.72958   0.36945   0.38708   1.000
    H47     H    0.72994   0.86970   0.38773   1.000
    C48     C    0.09713   0.40751   0.60289   1.000
    C49     C    0.09730   0.90772   0.60307   1.000
    C50     C    0.59712   0.40751   0.60290   1.000
    C51     C    0.59730   0.90772   0.60307   1.000
    C52     C    0.23281   0.40974   0.61626   1.000
    C53     C    0.23305   0.91005   0.61680   1.000
    C54     C    0.73281   0.40975   0.61626   1.000
    C55     C    0.73305   0.91005   0.61680   1.000
    C56     C    0.07531   0.14726   0.61552   1.000
    C57     C    0.07549   0.64722   0.61558   1.000
    C58     C    0.57531   0.14726   0.61552   1.000
    C59     C    0.57548   0.64722   0.61559   1.000
    C60     C    0.20415   0.14279   0.60174   1.000
    C61     C    0.20447   0.64297   0.60223   1.000
    C62     C    0.70415   0.14279   0.60170   1.000
    C63     C    0.70446   0.64297   0.60223   1.000
    C64     C    0.09568   0.02448   0.85765   1.000
    C65     C    0.09563   0.52431   0.85751   1.000
    C66     C    0.59567   0.02447   0.85765   1.000
    C67     C    0.59562   0.52431   0.85752   1.000
    N68     N    0.64659   0.61738   0.64375   1.000
    N69     N    0.39642   0.16162   0.44957   1.000
    N70     N    0.39671   0.66182   0.44994   1.000
    N71     N    0.89641   0.16162   0.44957   1.000
    C72     C    0.33288   0.15460   0.85816   1.000
    C73     C    0.33277   0.65446   0.85848   1.000
    C74     C    0.83288   0.15460   0.85817   1.000
    C75     C    0.83277   0.65446   0.85848   1.000
    C76     C    0.40270   0.09227   0.39698   1.000
    C77     C    0.40287   0.59247   0.39716   1.000
    C78     C    0.90269   0.09227   0.39698   1.000
    C79     C    0.90286   0.59247   0.39716   1.000
    C80     C    0.26694   0.08993   0.38323   1.000
    C81     C    0.26719   0.59023   0.38376   1.000
    C82     C    0.76693   0.08992   0.38323   1.000
    C83     C    0.76718   0.59023   0.38376   1.000
    C84     C    0.42452   0.35277   0.38448   1.000
    C85     C    0.42469   0.85273   0.38454   1.000
    C86     C    0.92450   0.35277   0.38447   1.000
    C87     C    0.92468   0.85272   0.38450   1.000
    C88     C    0.29552   0.35701   0.39780   1.000
    C89     C    0.29584   0.85719   0.39829   1.000
    C90     C    0.79551   0.35700   0.39779   1.000
    C91     C    0.79583   0.85718   0.39828   1.000
    C92     C    0.40436   0.47568   0.14251   1.000
    C93     C    0.40431   0.97552   0.14238   1.000
    C94     C    0.90436   0.47568   0.14250   1.000
    C95     C    0.90430   0.97551   0.14238   1.000
    C96     C    0.16724   0.34553   0.14154   1.000
    C97     C    0.16713   0.84539   0.14186   1.000
    C98     C    0.66723   0.34553   0.14154   1.000
    C99     C    0.66711   0.84540   0.14185   1.000
    N100    N    0.10328   0.33816   0.55011   1.000
    N101    N    0.10357   0.83836   0.55048   1.000
    N102    N    0.60328   0.33816   0.55011   1.000
    N103    N    0.60357   0.83836   0.55048   1.000
    N104    N    0.19199   0.33949   0.55894   1.000
    N105    N    0.19233   0.83977   0.55954   1.000
    N106    N    0.69198   0.33950   0.55894   1.000
    N107    N    0.69232   0.83977   0.55955   1.000
    N108    N    0.17597   0.45360   0.64460   1.000
    N109    N    0.17611   0.95386   0.64494   1.000
    N110    N    0.67597   0.45360   0.64467   1.000
    N111    N    0.67610   0.95386   0.64494   1.000
    N112    N    0.08726   0.18919   0.55835   1.000
    N113    N    0.08755   0.68931   0.55867   1.000
    N114    N    0.58725   0.18919   0.55835   1.000
    N115    N    0.58754   0.68931   0.55868   1.000
    N116    N    0.17145   0.18611   0.54925   1.000
    N117    N    0.17183   0.68637   0.54985   1.000
    N118    N    0.67144   0.18611   0.54925   1.000
    N119    N    0.67182   0.68637   0.54985   1.000
    N120    N    0.14641   0.11739   0.64300   1.000
    N121    N    0.14660   0.61738   0.64375   1.000
    N122    N    0.64641   0.11739   0.64360   1.000
    N123    N    0.89670   0.66182   0.44994   1.000
    N124    N    0.30766   0.16021   0.44049   1.000
    N125    N    0.30800   0.66048   0.44109   1.000
    N126    N    0.80765   0.16021   0.44049   1.000
    N127    N    0.80799   0.66048   0.44109   1.000
    N128    N    0.32389   0.04612   0.35510   1.000
    N129    N    0.32403   0.54638   0.35537   1.000
    N130    N    0.82388   0.04612   0.35510   1.000
    N131    N    0.82402   0.54638   0.35537   1.000
    N132    N    0.41245   0.31068   0.44138   1.000
    N133    N    0.41274   0.81079   0.44171   1.000
    N134    N    0.91244   0.31067   0.44138   1.000
    N135    N    0.91272   0.81079   0.44170   1.000
    N136    N    0.32816   0.31361   0.45018   1.000
    N137    N    0.32854   0.81387   0.45079   1.000
    N138    N    0.82815   0.31361   0.45018   1.000
    N139    N    0.82853   0.81386   0.45078   1.000
    N140    N    0.35341   0.38261   0.35630   1.000
    N141    N    0.35359   0.88260   0.35645   1.000
    N142    N    0.85339   0.38260   0.35629   1.000
    N143    N    0.85358   0.88259   0.35644   1.000
    O144    O    0.05602   0.03792   0.77195   1.000
    O145    O    0.05597   0.53776   0.77182   1.000
    O146    O    0.55601   0.03792   0.77195   1.000
    O147    O    0.55597   0.53776   0.77182   1.000
    O148    O    0.17856   0.02444   0.88287   1.000
    O149    O    0.17850   0.52422   0.88269   1.000
    O150    O    0.67855   0.02444   0.88287   1.000
    O151    O    0.67849   0.52422   0.88270   1.000
    O152    O    0.32968   0.09812   0.77315   1.000
    O153    O    0.32958   0.59793   0.77349   1.000
    O154    O    0.82968   0.09812   0.77315   1.000
    O155    O    0.82958   0.59793   0.77349   1.000
    O156    O    0.26257   0.16733   0.88278   1.000
    O157    O    0.26245   0.66725   0.88297   1.000
    O158    O    0.76257   0.16732   0.88279   1.000
    O159    O    0.76244   0.66725   0.88290   1.000
    O160    O    0.44402   0.46222   0.22820   1.000
    O161    O    0.44397   0.96205   0.22807   1.000
    O162    O    0.94401   0.46222   0.22820   1.000
    O163    O    0.94396   0.96206   0.22807   1.000
    O164    O    0.32149   0.47578   0.11734   1.000
    O165    O    0.32144   0.97556   0.11716   1.000
    O166    O    0.82149   0.47578   0.11734   1.000
    O167    O    0.82143   0.97556   0.11716   1.000
    O168    O    0.17042   0.40205   0.22653   1.000
    O169    O    0.17032   0.90187   0.22688   1.000
    O170    O    0.67041   0.40205   0.22653   1.000
    O171    O    0.67031   0.90187   0.22688   1.000
    O172    O    0.23757   0.33274   0.11706   1.000
    O173    O    0.23744   0.83266   0.11726   1.000
    O174    O    0.73756   0.33274   0.11705   1.000
    O175    O    0.73743   0.83266   0.11725   1.000
    Og176   Og   0.07904   0.01982   0.88167   1.000
    Og177   Og   0.07899   0.51967   0.88156   1.000
    Og178   Og   0.57903   0.01981   0.88167   1.000
    Og179   Og   0.57899   0.51968   0.88156   1.000
    Og180   Og   0.36159   0.17123   0.88204   1.000
    Og181   Og   0.36149   0.67108   0.88237   1.000
    Og182   Og   0.86159   0.17123   0.88206   1.000
    Og183   Og   0.86149   0.67108   0.88235   1.000
    Og184   Og   0.42100   0.48031   0.11847   1.000
    Og185   Og   0.42096   0.98018   0.11835   1.000
    Og186   Og   0.92099   0.48031   0.11846   1.000
    Og187   Og   0.92095   0.98018   0.11836   1.000
    Og188   Og   0.13852   0.32891   0.11764   1.000
    Og189   Og   0.13842   0.82876   0.11797   1.000
    Og190   Og   0.63851   0.32891   0.11764   1.000
    Og191   Og   0.63840   0.82876   0.11796   1.000
loop_
    _geom_bond_atom_site_label_1
    _geom_bond_atom_site_label_2
    _geom_bond_distance
    _geom_bond_site_symmetry_2
    _ccdc_geom_bond_type
    O174   C98       1.27513      .   S
    O174   Zn5       2.13302      .   S
    O172   C96       1.27509      .   S
    O172   Zn3       2.13299      .   S
    O165   C93       1.27647      .   S
    O165   Zn4       2.12003      .   S
    O167   C95       1.27646      .   S
    O167   Zn6       2.12001      .   S
    O175   C99       1.27535      .   S
    O175   Zn6       2.13030      .   S
    O173   C97       1.27536      .   S
    O173   Zn4       2.13033      .   S
    O164   C92       1.27654      .   S
    O164   Zn3       2.11898      .   S
    O166   C94       1.27655      .   S
    O166   Zn5       2.11901      .   S
    C96    O168      1.29127      .   S
    C98    O170      1.29128      .   S
    C99    O171      1.29100      .   S
    C97    O169      1.29101      .   S
    C93    O161      1.28973      .   S
    C95    O163      1.28966      .   S
    C94    O162      1.28983      .   S
    C92    O160      1.28964      .   S
    O168   Zn3       2.20644      .   S
    O170   Zn5       2.20643      .   S
    O171   Zn6       2.21012      .   S
    O169   Zn4       2.21012      .   S
    O163   Zn6       2.22879      .   S
    O161   Zn4       2.22876      .   S
    O162   Zn5       2.22961      .   S
    O160   Zn3       2.22959      .   S
    Zn6    N130      2.16335  1_565   S
    Zn6    N143      2.16182      .   S
    Zn4    N128      2.16333  1_565   S
    Zn4    N141      2.16178      .   S
    Zn3    N129      2.16402      .   S
    Zn3    N140      2.16230      .   S
    Zn5    N131      2.16397      .   S
    Zn5    N142      2.16226      .   S
    N128   C80       1.34746      .   S
    N128   C76       1.34756      .   S
    N130   C82       1.34745      .   S
    N130   C78       1.34755      .   S
    N129   C81       1.34747      .   S
    N129   C77       1.34757      .   S
    N131   C83       1.34747      .   S
    N131   C79       1.34757      .   S
    N142   C86       1.34750      .   S
    N142   C90       1.34752      .   S
    N140   C84       1.34750      .   S
    N140   C88       1.34752      .   S
    N143   C87       1.34743      .   S
    N143   C91       1.34749      .   S
    N141   C85       1.34750      .   S
    N141   C89       1.34754      .   S
    H36    C80       1.08508      .   S
    H38    C82       1.08509      .   S
    H37    C81       1.08506      .   S
    H39    C83       1.08508      .   S
    H43    C87       1.08505      .   S
    H41    C85       1.08499      .   S
    H42    C86       1.08499      .   S
    H40    C84       1.08499      .   S
    C82    N126      1.34335      .   S
    C80    N124      1.34334      .   S
    C83    N127      1.34337      .   S
    C81    N125      1.34337      .   S
    C86    N134      1.34338      .   S
    C84    N132      1.34328      .   S
    C87    N135      1.34362      .   S
    C85    N133      1.34333      .   S
    H35    C79       1.08490      .   S
    H33    C77       1.08487      .   S
    H34    C78       1.08486      .   S
    H32    C76       1.08483      .   S
    H46    C90       1.08481      .   S
    H44    C88       1.08480      .   S
    H47    C91       1.08479      .   S
    H45    C89       1.08481      .   S
    C78    N71       1.34012      .   S
    C76    N69       1.34010      .   S
    C79    N123      1.34011      .   S
    C77    N70       1.34011      .   S
    C90    N138      1.34010      .   S
    C88    N136      1.34003      .   S
    C91    N139      1.34011      .   S
    C89    N137      1.34011      .   S
    N126   N71       1.38735      .   S
    N126   Zn13      2.08318      .   S
    N124   N69       1.38735      .   S
    N124   Zn11      2.08317      .   S
    N127   N123      1.38730      .   S
    N127   Zn14      2.08416      .   S
    N125   N70       1.38731      .   S
    N125   Zn12      2.08414      .   S
    N134   N138      1.38739      .   S
    N134   Zn7       2.08479      .   S
    N132   N136      1.38737      .   S
    N132   Zn9       2.08467      .   S
    N135   N139      1.38738      .   S
    N135   Zn8       2.08472  1_655   S
    N133   N137      1.38738      .   S
    N133   Zn10      2.08418      .   S
    N69    Zn9       2.08538      .   S
    N71    Zn7       2.08556      .   S
    N70    Zn10      2.08520      .   S
    N123   Zn8       2.08524  1_655   S
    N138   Zn13      2.08553      .   S
    N136   Zn11      2.08561      .   S
    N139   Zn14      2.08624      .   S
    N137   Zn12      2.08611      .   S
    Zn11   N116      2.08614      .   S
    Zn11   N104      2.08413      .   S
    Zn13   N118      2.08610      .   S
    Zn13   N106      2.08413      .   S
    Zn7    N100      2.08508  1_655   S
    Zn7    N112      2.08454  1_655   S
    Zn9    N102      2.08510      .   S
    Zn9    N114      2.08451      .   S
    Zn10   N103      2.08527      .   S
    Zn10   N115      2.08501      .   S
    Zn8    N101      2.08540      .   S
    Zn8    N113      2.08465      .   S
    Zn12   N117      2.08551      .   S
    Zn12   N105      2.08318      .   S
    Zn14   N119      2.08544      .   S
    Zn14   N107      2.08315      .   S
    N116   N112      1.38739      .   S
    N116   C60       1.34006      .   S
    N118   N114      1.38739      .   S
    N118   C62       1.33972      .   S
    N117   N113      1.38738      .   S
    N117   C61       1.34008      .   S
    N119   N115      1.38743      .   S
    N119   C63       1.34008      .   S
    N100   N104      1.38731      .   S
    N100   C48       1.34009      .   S
    N102   N106      1.38731      .   S
    N102   C50       1.34012      .   S
    N101   N105      1.38736      .   S
    N101   C49       1.34010      .   S
    N103   N107      1.38734      .   S
    N103   C51       1.34009      .   S
    N112   C56       1.34327      .   S
    N114   C58       1.34325      .   S
    N113   C57       1.34332      .   S
    N115   C59       1.34332      .   S
    N106   C54       1.34336      .   S
    N104   C52       1.34334      .   S
    N105   C53       1.34334      .   S
    N107   C55       1.34333      .   S
    C62    H29       1.08477      .   S
    C62    N122      1.34794      .   S
    C60    H27       1.08480      .   S
    C60    N120      1.34166      .   S
    C61    H28       1.08481      .   S
    C61    N121      1.34755      .   S
    C63    H30       1.08480      .   S
    C63    N68       1.34754      .   S
    C48    H15       1.08490      .   S
    C48    N108      1.34762      .   S
    C50    H17       1.08488      .   S
    C50    N110      1.34760      .   S
    C49    H16       1.08487      .   S
    C49    N109      1.34756      .   S
    C51    H18       1.08485      .   S
    C51    N111      1.34756      .   S
    C56    H23       1.08504      .   S
    C56    N120      1.34586      .   S
    C58    H25       1.08510      .   S
    C58    N122      1.34753      .   S
    C57    H24       1.08505      .   S
    C57    N121      1.34752      .   S
    C59    H26       1.08466      .   S
    C59    N68       1.34747      .   S
    C52    H19       1.08507      .   S
    C52    N108      1.34725      .   S
    C54    H21       1.08512      .   S
    C54    N110      1.34747      .   S
    C53    H20       1.08509      .   S
    C53    N109      1.34745      .   S
    C55    H22       1.08510      .   S
    C55    N111      1.34745      .   S
    N120   Zn31      2.16833      .   S
    N122   Zn1       2.16188      .   S
    N121   Zn0       2.16230      .   S
    N68    Zn2       2.16225      .   S
    N108   Zn0       2.16427      .   S
    N110   Zn2       2.16399      .   S
    N109   Zn31      2.16337  1_565   S
    N111   Zn1       2.16333  1_565   S
    Zn0    O145      2.22990      .   S
    Zn0    O153      2.20638      .   S
    Zn0    O149      2.11872      .   S
    Zn0    O157      2.13305      .   S
    Zn2    O147      2.22991      .   S
    Zn2    O155      2.20639      .   S
    Zn2    O151      2.11886      .   S
    Zn2    O159      2.13271      .   S
    Zn31   O144      2.22903      .   S
    Zn31   O152      2.21005      .   S
    Zn31   O156      2.13038      .   S
    Zn31   O148      2.11969      .   S
    Zn1    O146      2.22906      .   S
    Zn1    O154      2.21005      .   S
    Zn1    O158      2.13040      .   S
    Zn1    O150      2.11972      .   S
    O145   C65       1.28959      .   S
    O147   C67       1.28963      .   S
    O144   C64       1.28964      .   S
    O146   C66       1.28972      .   S
    O152   C72       1.29094      .   S
    O154   C74       1.29095      .   S
    O153   C73       1.29127      .   S
    O155   C75       1.29130      .   S
    C65    O149      1.27656      .   S
    C67    O151      1.27656      .   S
    C66    O150      1.27648      .   S
    C64    O148      1.27650      .   S
    C72    O156      1.27540      .   S
    C74    O158      1.27541      .   S
    C75    O159      1.27467      .   S
    C73    O157      1.27511      .   S
    C64    Og176     0.49712      .   S
    C65    Og177     0.49711      .   S
    C66    Og178     0.49712      .   S
    C67    Og179     0.49711      .   S
    C72    Og180     0.49703      .   S
    C73    Og181     0.49705      .   S
    C74    Og182     0.49705      .   S
    C75    Og183     0.49699      .   S
    C92    Og184     0.49710      .   S
    C93    Og185     0.49718      .   S
    C94    Og186     0.49706      .   S
    C95    Og187     0.49715      .   S
    C96    Og188     0.49705      .   S
    C97    Og189     0.49705      .   S
    C98    Og190     0.49705      .   S
    C99    Og191     0.49705      .   S
