# CIF file generated by openbabel 2.4.90, see http://openbabel.sf.net
data_I
_chemical_name_common ''
_cell_length_a 13.315
_cell_length_b 14.537
_cell_length_c 14.537
_cell_angle_alpha 89.98
_cell_angle_beta 90.001
_cell_angle_gamma 90.016
_space_group_name_H-M_alt 'P 1'
_space_group_name_Hall 'P 1'
loop_
    _symmetry_equiv_pos_as_xyz
    x,y,z
loop_
    _atom_site_label
    _atom_site_type_symbol
    _atom_site_fract_x
    _atom_site_fract_y
    _atom_site_fract_z
    _atom_site_occupancy
    Zn0     Zn   0.49964   0.00000   0.50004   1.000
    Zn1     Zn   0.99976   0.00000   0.50004   1.000
    Zn2     Zn   0.49975   0.50001   0.99997   1.000
    Zn3     Zn   0.99986   0.50000   0.99997   1.000
    C4      C    0.94313   0.33807   0.08682   1.000
    C5      C    0.94302   0.66186   0.91318   1.000
    C6      C    0.44290   0.83822   0.41317   1.000
    C7      C    0.44279   0.16172   0.58687   1.000
    C8      C    0.94298   0.91321   0.33810   1.000
    C9      C    0.94288   0.08682   0.66183   1.000
    C10     C    0.44306   0.41314   0.16183   1.000
    C11     C    0.44296   0.58689   0.83820   1.000
    O12     O    0.90281   0.40369   0.03821   1.000
    O13     O    0.03517   0.32379   0.09433   1.000
    O14     O    0.90268   0.59616   0.96170   1.000
    O15     O    0.03507   0.67620   0.90570   1.000
    O16     O    0.40245   0.90387   0.46161   1.000
    O17     O    0.53493   0.82399   0.40580   1.000
    O18     O    0.40232   0.09601   0.53851   1.000
    O19     O    0.53483   0.17601   0.59417   1.000
    O20     O    0.90264   0.96174   0.40382   1.000
    O21     O    0.03502   0.90578   0.32380   1.000
    O22     O    0.90252   0.03830   0.59610   1.000
    O23     O    0.03492   0.09424   0.67610   1.000
    O24     O    0.40263   0.46158   0.09614   1.000
    O25     O    0.53509   0.40575   0.17607   1.000
    O26     O    0.40252   0.53844   0.90390   1.000
    O27     O    0.53500   0.59426   0.82394   1.000
loop_
    _geom_bond_atom_site_label_1
    _geom_bond_atom_site_label_2
    _geom_bond_distance
    _geom_bond_site_symmetry_2
    _ccdc_geom_bond_type
    O12    C4        1.30287      .   S
    O12    Zn3       1.98434  1_554   S
    C4     O13       1.24776  1_655   S
    O24    C10       1.30281      .   S
    O24    Zn2       1.98441  1_554   S
    C10    O25       1.24741      .   S
    O21    C8        1.24773  1_455   S
    C8     O20       1.30372      .   S
    O20    Zn1       1.98454  1_565   S
    O17    C6        1.24742      .   S
    C6     O16       1.30281      .   S
    O16    Zn0       1.98474  1_565   S
    Zn0    O18       1.98527      .   S
    Zn1    O22       1.98426      .   S
    O18    C7        1.30284      .   S
    C7     O19       1.24742      .   S
    O22    C9        1.30369      .   S
    C9     O23       1.24762  1_655   S
    O27    C11       1.24741      .   S
    C11    O26       1.30286      .   S
    O26    Zn2       1.98451      .   S
    O15    C5        1.24782  1_455   S
    C5     O14       1.30297      .   S
    O14    Zn3       1.98445      .   S
