# CIF file generated by openbabel 2.4.90, see http://openbabel.sf.net
data_I
_chemical_name_common ''
_cell_length_a 13.315
_cell_length_b 14.537
_cell_length_c 14.537
_cell_angle_alpha 89.98
_cell_angle_beta 90.001
_cell_angle_gamma 90.016
_space_group_name_H-M_alt 'P 1'
_space_group_name_Hall 'P 1'
loop_
    _symmetry_equiv_pos_as_xyz
    x,y,z
loop_
    _atom_site_label
    _atom_site_type_symbol
    _atom_site_fract_x
    _atom_site_fract_y
    _atom_site_fract_z
    _atom_site_occupancy
    C0      C    0.99986   0.50000   0.99997   1.000
    C1      C    0.49964   0.00000   0.50004   1.000
    C2      C    0.99976   0.00000   0.50004   1.000
    C3      C    0.49975   0.50001   0.99997   1.000
    C4      C    0.98341   0.19162   0.19570   1.000
    C5      C    0.86095   0.09356   0.28367   1.000
    C6      C    0.61748   0.25926   0.17671   1.000
    C7      C    0.73977   0.35269   0.08925   1.000
    C8      C    0.56695   0.07060   0.16768   1.000
    C9      C    0.77724   0.08420   0.46590   1.000
    C10     C    0.75773   0.19669   0.42284   1.000
    C11     C    0.67332   0.15092   0.50722   1.000
    C12     C    0.98341   0.80832   0.80432   1.000
    C13     C    0.86103   0.90640   0.71636   1.000
    C14     C    0.61743   0.74074   0.82331   1.000
    C15     C    0.73964   0.64727   0.91074   1.000
    C16     C    0.56706   0.92939   0.83239   1.000
    C17     C    0.77725   0.91588   0.53410   1.000
    C18     C    0.75770   0.80337   0.57715   1.000
    C19     C    0.67329   0.84915   0.49281   1.000
    C20     C    0.48358   0.69150   0.30492   1.000
    C21     C    0.36142   0.59314   0.21697   1.000
    C22     C    0.11755   0.75898   0.32278   1.000
    C23     C    0.23952   0.85279   0.41014   1.000
    C24     C    0.06776   0.56949   0.33244   1.000
    C25     C    0.27731   0.58449   0.03380   1.000
    C26     C    0.25787   0.69675   0.07743   1.000
    C27     C    0.17327   0.65138   0.99301   1.000
    C28     C    0.48359   0.30846   0.69511   1.000
    C29     C    0.36151   0.40684   0.78305   1.000
    C30     C    0.11751   0.24104   0.67723   1.000
    C31     C    0.23940   0.14720   0.58990   1.000
    C32     C    0.06791   0.43053   0.66753   1.000
    C33     C    0.27732   0.41554   0.96620   1.000
    C34     C    0.25783   0.30328   0.92261   1.000
    C35     C    0.17323   0.34865   0.00000   1.000
    C36     C    0.98340   0.80444   0.19177   1.000
    C37     C    0.86105   0.71646   0.09368   1.000
    C38     C    0.61741   0.82318   0.25927   1.000
    C39     C    0.73959   0.91065   0.35274   1.000
    C40     C    0.56702   0.83232   0.07064   1.000
    C41     C    0.77740   0.53421   0.08413   1.000
    C42     C    0.75784   0.57713   0.19664   1.000
    C43     C    0.67348   0.49275   0.15085   1.000
    C44     C    0.98335   0.19567   0.80819   1.000
    C45     C    0.86106   0.28367   0.90625   1.000
    C46     C    0.61736   0.17685   0.74072   1.000
    C47     C    0.73949   0.08936   0.64728   1.000
    C48     C    0.56702   0.16772   0.92937   1.000
    C49     C    0.77737   0.46598   0.91572   1.000
    C50     C    0.75783   0.42295   0.80325   1.000
    C51     C    0.67345   0.50730   0.84898   1.000
    C52     C    0.48366   0.30486   0.30864   1.000
    C53     C    0.36142   0.21696   0.40702   1.000
    C54     C    0.11764   0.32291   0.24105   1.000
    C55     C    0.23969   0.41022   0.14723   1.000
    C56     C    0.06786   0.33253   0.43057   1.000
    C57     C    0.27718   0.03386   0.41564   1.000
    C58     C    0.25773   0.07750   0.30336   1.000
    C59     C    0.17309   0.99309   0.34870   1.000
    C60     C    0.48362   0.69522   0.69142   1.000
    C61     C    0.36142   0.78315   0.59307   1.000
    C62     C    0.11759   0.67713   0.75900   1.000
    C63     C    0.23960   0.58980   0.85280   1.000
    C64     C    0.06783   0.66752   0.56940   1.000
    C65     C    0.27716   0.96631   0.58450   1.000
    C66     C    0.25775   0.92258   0.69676   1.000
    C67     C    0.17309   0.00000   0.65143   1.000
    C68     C    0.94313   0.33807   0.08682   1.000
    C69     C    0.86903   0.27767   0.13680   1.000
    C70     C    0.90300   0.20502   0.19210   1.000
    C71     C    0.83523   0.15047   0.24087   1.000
    C72     C    0.73263   0.16983   0.23368   1.000
    C73     C    0.69708   0.24200   0.17925   1.000
    C74     C    0.76587   0.29535   0.13082   1.000
    C75     C    0.58065   0.06933   0.24113   1.000
    C76     C    0.65262   0.09757   0.37408   1.000
    C77     C    0.71919   0.13439   0.44661   1.000
    C78     C    0.94302   0.66186   0.91318   1.000
    C79     C    0.86897   0.72228   0.86321   1.000
    C80     C    0.90299   0.79492   0.80783   1.000
    C81     C    0.83526   0.84949   0.75916   1.000
    C82     C    0.73265   0.83015   0.76634   1.000
    C83     C    0.69704   0.75799   0.82077   1.000
    C84     C    0.76579   0.70460   0.86917   1.000
    C85     C    0.58075   0.93068   0.75894   1.000
    C86     C    0.65265   0.90246   0.62590   1.000
    C87     C    0.71918   0.86567   0.55341   1.000
    C88     C    0.44290   0.83822   0.41317   1.000
    C89     C    0.36897   0.77767   0.36300   1.000
    C90     C    0.40315   0.70486   0.30819   1.000
    C91     C    0.33556   0.65014   0.25953   1.000
    C92     C    0.23293   0.66947   0.26640   1.000
    C93     C    0.19718   0.74179   0.32047   1.000
    C94     C    0.26578   0.79534   0.36885   1.000
    C95     C    0.08131   0.56851   0.25897   1.000
    C96     C    0.15293   0.59736   0.12597   1.000
    C97     C    0.21928   0.63457   0.05346   1.000
    C98     C    0.44279   0.16172   0.58687   1.000
    C99     C    0.36892   0.22228   0.63684   1.000
    C100    C    0.40315   0.29510   0.69184   1.000
    C101    C    0.33561   0.34983   0.74050   1.000
    C102    C    0.23296   0.33053   0.73362   1.000
    C103    C    0.19715   0.25822   0.67956   1.000
    C104    C    0.26571   0.20465   0.63117   1.000
    C105    C    0.08143   0.43152   0.74101   1.000
    C106    C    0.15297   0.40267   0.87403   1.000
    C107    C    0.21928   0.36546   0.94657   1.000
    C108    C    0.94298   0.91321   0.33810   1.000
    C109    C    0.86893   0.86320   0.27778   1.000
    C110    C    0.90297   0.80790   0.20514   1.000
    C111    C    0.83527   0.75920   0.15058   1.000
    C112    C    0.73265   0.76632   0.16990   1.000
    C113    C    0.69703   0.82068   0.24200   1.000
    C114    C    0.76575   0.86913   0.29542   1.000
    C115    C    0.58075   0.75889   0.06934   1.000
    C116    C    0.65275   0.62594   0.09754   1.000
    C117    C    0.71932   0.55341   0.13433   1.000
    C118    C    0.94288   0.08682   0.66183   1.000
    C119    C    0.86886   0.13684   0.72221   1.000
    C120    C    0.90293   0.19220   0.79482   1.000
    C121    C    0.83525   0.24090   0.84937   1.000
    C122    C    0.73263   0.23377   0.83006   1.000
    C123    C    0.69698   0.17936   0.75794   1.000
    C124    C    0.76568   0.13092   0.70456   1.000
    C125    C    0.58075   0.24117   0.93064   1.000
    C126    C    0.65274   0.37414   0.90230   1.000
    C127    C    0.71930   0.44669   0.86554   1.000
    C128    C    0.44306   0.41314   0.16183   1.000
    C129    C    0.36910   0.36321   0.22241   1.000
    C130    C    0.40323   0.30817   0.29525   1.000
    C131    C    0.33559   0.25954   0.34998   1.000
    C132    C    0.23297   0.26647   0.33063   1.000
    C133    C    0.19726   0.32056   0.25828   1.000
    C134    C    0.26591   0.36892   0.20471   1.000
    C135    C    0.08135   0.25905   0.43156   1.000
    C136    C    0.15285   0.12604   0.40274   1.000
    C137    C    0.21915   0.05353   0.36550   1.000
    C138    C    0.44296   0.58689   0.83820   1.000
    C139    C    0.36903   0.63684   0.77760   1.000
    C140    C    0.40319   0.69190   0.70481   1.000
    C141    C    0.33557   0.74055   0.65010   1.000
    C142    C    0.23295   0.73361   0.66944   1.000
    C143    C    0.19722   0.67949   0.74179   1.000
    C144    C    0.26584   0.63112   0.79533   1.000
    C145    C    0.08133   0.74100   0.56851   1.000
    C146    C    0.15285   0.87404   0.59737   1.000
    C147    C    0.21915   0.94657   0.63459   1.000
    C148    C    0.52623   0.02651   0.30290   1.000
    C149    C    0.57192   0.04468   0.38662   1.000
    C150    C    0.66057   0.11414   0.28136   1.000
    C151    C    0.52633   0.97351   0.69719   1.000
    C152    C    0.57199   0.95537   0.61346   1.000
    C153    C    0.66063   0.88587   0.71868   1.000
    C154    C    0.02684   0.52581   0.19717   1.000
    C155    C    0.07233   0.54435   0.11343   1.000
    C156    C    0.16104   0.61361   0.21873   1.000
    C157    C    0.02697   0.47423   0.80270   1.000
    C158    C    0.07240   0.45569   0.88655   1.000
    C159    C    0.16111   0.38641   0.78128   1.000
    C160    C    0.52638   0.69713   0.02647   1.000
    C161    C    0.57210   0.61342   0.04460   1.000
    C162    C    0.66065   0.71865   0.11416   1.000
    C163    C    0.52639   0.30291   0.97349   1.000
    C164    C    0.57210   0.38664   0.95532   1.000
    C165    C    0.66065   0.28143   0.88500   1.000
    C166    C    0.02683   0.19725   0.47424   1.000
    C167    C    0.07225   0.11350   0.45572   1.000
    C168    C    0.16104   0.21880   0.38648   1.000
    C169    C    0.02682   0.80280   0.52584   1.000
    C170    C    0.07224   0.88657   0.54440   1.000
    C171    C    0.16103   0.78127   0.61360   1.000
    C172    C    0.90281   0.40369   0.03821   1.000
    C173    C    0.03517   0.32379   0.09433   1.000
    C174    C    0.90268   0.59616   0.96170   1.000
    C175    C    0.03507   0.67620   0.90570   1.000
    C176    C    0.40245   0.90387   0.46161   1.000
    C177    C    0.53493   0.82399   0.40580   1.000
    C178    C    0.40232   0.09601   0.53851   1.000
    C179    C    0.53483   0.17601   0.59417   1.000
    C180    C    0.90264   0.96174   0.40382   1.000
    C181    C    0.03502   0.90578   0.32380   1.000
    C182    C    0.90252   0.03830   0.59610   1.000
    C183    C    0.03492   0.09424   0.67610   1.000
    C184    C    0.40263   0.46158   0.09614   1.000
    C185    C    0.53509   0.40575   0.17607   1.000
    C186    C    0.40252   0.53844   0.90390   1.000
    C187    C    0.53500   0.59426   0.82394   1.000
    O188    O    0.19625   0.35706   0.97328   1.000
    O189    O    0.54924   0.65527   0.03553   1.000
    O190    O    0.55357   0.72801   0.04791   1.000
    O191    O    0.24830   0.60953   0.04363   1.000
    O192    O    0.92297   0.37088   0.06252   1.000
    O193    O    0.95133   0.45185   0.01909   1.000
    O194    O    0.61242   0.61968   0.07107   1.000
    O195    O    0.53593   0.55671   0.02228   1.000
    O196    O    0.23858   0.66566   0.06545   1.000
    O197    O    0.18611   0.61596   0.08971   1.000
    O198    O    0.19628   0.64297   0.02323   1.000
    O199    O    0.57388   0.79560   0.06999   1.000
    O200    O    0.62070   0.73877   0.09175   1.000
    O201    O    0.74836   0.54381   0.10923   1.000
    O202    O    0.98915   0.33093   0.09057   1.000
    O203    O    0.90608   0.30787   0.11181   1.000
    O204    O    0.75282   0.32402   0.11003   1.000
    O205    O    0.84816   0.73783   0.12213   1.000
    O206    O    0.42285   0.43736   0.12899   1.000
    O207    O    0.45119   0.48079   0.04806   1.000
    O208    O    0.65670   0.67229   0.10585   1.000
    O209    O    0.68603   0.58967   0.11593   1.000
    O210    O    0.11263   0.57085   0.11970   1.000
    O211    O    0.04959   0.53508   0.15530   1.000
    O212    O    0.03609   0.52217   0.05670   1.000
    O213    O    0.69665   0.74248   0.14203   1.000
    O214    O    0.15698   0.60548   0.17235   1.000
    O215    O    0.81745   0.28651   0.13381   1.000
    O216    O    0.73147   0.26868   0.15503   1.000
    O217    O    0.69640   0.52308   0.14259   1.000
    O218    O    0.73858   0.56527   0.16548   1.000
    O219    O    0.88602   0.24134   0.16445   1.000
    O220    O    0.25280   0.38957   0.17597   1.000
    O221    O    0.78396   0.76276   0.16024   1.000
    O222    O    0.86912   0.78355   0.17786   1.000
    O223    O    0.48908   0.40944   0.16895   1.000
    O224    O    0.40608   0.38817   0.19212   1.000
    O225    O    0.57380   0.06996   0.20441   1.000
    O226    O    0.71484   0.79350   0.20595   1.000
    O227    O    0.65728   0.25063   0.17798   1.000
    O228    O    0.71486   0.20591   0.20646   1.000
    O229    O    0.94319   0.80617   0.19845   1.000
    O230    O    0.94321   0.19832   0.19390   1.000
    O231    O    0.86912   0.17775   0.21648   1.000
    O232    O    0.05408   0.54716   0.22807   1.000
    O233    O    0.31751   0.36606   0.21356   1.000
    O234    O    0.23159   0.34474   0.23150   1.000
    O235    O    0.88595   0.83555   0.24146   1.000
    O236    O    0.34849   0.62164   0.23825   1.000
    O237    O    0.12118   0.59106   0.23885   1.000
    O238    O    0.19699   0.64154   0.24257   1.000
    O239    O    0.38617   0.33569   0.25883   1.000
    O240    O    0.78393   0.16015   0.23727   1.000
    O241    O    0.69660   0.14199   0.25752   1.000
    O242    O    0.84809   0.12202   0.26227   1.000
    O243    O    0.15745   0.32174   0.24966   1.000
    O244    O    0.62061   0.09173   0.26125   1.000
    O245    O    0.55344   0.04792   0.27202   1.000
    O246    O    0.65722   0.82193   0.25063   1.000
    O247    O    0.73139   0.84491   0.26871   1.000
    O248    O    0.21512   0.29352   0.29446   1.000
    O249    O    0.07454   0.56900   0.29571   1.000
    O250    O    0.28424   0.65981   0.26297   1.000
    O251    O    0.36935   0.67750   0.28386   1.000
    O252    O    0.21505   0.70563   0.29344   1.000
    O253    O    0.81734   0.86616   0.28660   1.000
    O254    O    0.90596   0.88821   0.30794   1.000
    O255    O    0.65660   0.10585   0.32772   1.000
    O256    O    0.44345   0.30651   0.30195   1.000
    O257    O    0.36941   0.28386   0.32261   1.000
    O258    O    0.75267   0.88989   0.32408   1.000
    O259    O    0.54907   0.03559   0.34476   1.000
    O260    O    0.23844   0.06551   0.33443   1.000
    O261    O    0.44337   0.69818   0.30656   1.000
    O262    O    0.38606   0.74127   0.33559   1.000
    O263    O    0.15737   0.75038   0.32162   1.000
    O264    O    0.23148   0.76856   0.34466   1.000
    O265    O    0.98900   0.90949   0.33095   1.000
    O266    O    0.28428   0.26301   0.34031   1.000
    O267    O    0.19701   0.24264   0.35855   1.000
    O268    O    0.92281   0.93747   0.37096   1.000
    O269    O    0.19612   0.02331   0.35710   1.000
    O270    O    0.34850   0.23825   0.37850   1.000
    O271    O    0.31738   0.78651   0.36593   1.000
    O272    O    0.40593   0.80795   0.38808   1.000
    O273    O    0.18600   0.08979   0.38412   1.000
    O274    O    0.24817   0.04370   0.39057   1.000
    O275    O    0.25265   0.82406   0.38950   1.000
    O276    O    0.61227   0.07112   0.38035   1.000
    O277    O    0.68590   0.11598   0.41035   1.000
    O278    O    0.15695   0.17242   0.39461   1.000
    O279    O    0.12120   0.23893   0.40902   1.000
    O280    O    0.53578   0.02234   0.44333   1.000
    O281    O    0.11255   0.11977   0.42923   1.000
    O282    O    0.95120   0.98087   0.45193   1.000
    O283    O    0.48891   0.83111   0.40948   1.000
    O284    O    0.42267   0.87104   0.43739   1.000
    O285    O    0.73846   0.16554   0.43472   1.000
    O286    O    0.07460   0.29579   0.43107   1.000
    O287    O    0.05409   0.22815   0.45290   1.000
    O288    O    0.74821   0.10929   0.45625   1.000
    O289    O    0.69625   0.14266   0.47692   1.000
    O290    O    0.04954   0.15537   0.46498   1.000
    O291    O    0.03600   0.05675   0.47788   1.000
    O292    O    0.45104   0.95193   0.48083   1.000
    O293    O    0.69623   0.85741   0.52311   1.000
    O294    O    0.45098   0.04800   0.51928   1.000
    O295    O    0.53581   0.97768   0.55675   1.000
    O296    O    0.03600   0.94328   0.52222   1.000
    O297    O    0.95114   0.01915   0.54807   1.000
    O298    O    0.04953   0.84468   0.53512   1.000
    O299    O    0.05407   0.77190   0.54717   1.000
    O300    O    0.74821   0.89077   0.54375   1.000
    O301    O    0.42256   0.12886   0.56269   1.000
    O302    O    0.11254   0.88030   0.57088   1.000
    O303    O    0.73844   0.83452   0.56528   1.000
    O304    O    0.68591   0.88407   0.58965   1.000
    O305    O    0.07458   0.70426   0.56895   1.000
    O306    O    0.12118   0.76114   0.59105   1.000
    O307    O    0.24816   0.95644   0.60955   1.000
    O308    O    0.48881   0.16887   0.59052   1.000
    O309    O    0.40585   0.19200   0.61185   1.000
    O310    O    0.25256   0.17592   0.61054   1.000
    O311    O    0.34850   0.76185   0.62158   1.000
    O312    O    0.92270   0.06256   0.62896   1.000
    O313    O    0.15694   0.82766   0.60548   1.000
    O314    O    0.18600   0.91030   0.61598   1.000
    O315    O    0.61232   0.92892   0.61968   1.000
    O316    O    0.54916   0.96444   0.65533   1.000
    O317    O    0.19699   0.75744   0.64152   1.000
    O318    O    0.65664   0.89417   0.67229   1.000
    O319    O    0.31731   0.21347   0.63401   1.000
    O320    O    0.23143   0.23143   0.65537   1.000
    O321    O    0.19612   0.97328   0.64301   1.000
    O322    O    0.23845   0.93457   0.66568   1.000
    O323    O    0.38603   0.25869   0.66434   1.000
    O324    O    0.75258   0.11014   0.67592   1.000
    O325    O    0.28426   0.73708   0.65977   1.000
    O326    O    0.36938   0.71623   0.67746   1.000
    O327    O    0.98890   0.09053   0.66897   1.000
    O328    O    0.90587   0.11183   0.69202   1.000
    O329    O    0.07467   0.43102   0.70427   1.000
    O330    O    0.21508   0.70655   0.70561   1.000
    O331    O    0.15733   0.24963   0.67839   1.000
    O332    O    0.21506   0.29437   0.70659   1.000
    O333    O    0.44340   0.69356   0.69812   1.000
    O334    O    0.44337   0.30178   0.69348   1.000
    O335    O    0.36938   0.32247   0.71617   1.000
    O336    O    0.55354   0.95210   0.72806   1.000
    O337    O    0.81727   0.13388   0.71338   1.000
    O338    O    0.73133   0.15514   0.73125   1.000
    O339    O    0.38611   0.66437   0.74121   1.000
    O340    O    0.84814   0.87795   0.73776   1.000
    O341    O    0.62069   0.90827   0.73881   1.000
    O342    O    0.69664   0.85801   0.74251   1.000
    O343    O    0.88590   0.16452   0.75851   1.000
    O344    O    0.28428   0.34018   0.73706   1.000
    O345    O    0.19703   0.35847   0.75745   1.000
    O346    O    0.34856   0.37833   0.76178   1.000
    O347    O    0.65717   0.17810   0.74933   1.000
    O348    O    0.12127   0.40896   0.76114   1.000
    O349    O    0.05420   0.45287   0.77185   1.000
    O350    O    0.15740   0.67831   0.75039   1.000
    O351    O    0.23153   0.65531   0.76856   1.000
    O352    O    0.71480   0.20656   0.79400   1.000
    O353    O    0.57390   0.93003   0.79566   1.000
    O354    O    0.78395   0.83982   0.76275   1.000
    O355    O    0.86913   0.82221   0.78349   1.000
    O356    O    0.71485   0.79407   0.79356   1.000
    O357    O    0.31743   0.63398   0.78646   1.000
    O358    O    0.40600   0.61186   0.80790   1.000
    O359    O    0.15704   0.39454   0.82765   1.000
    O360    O    0.94314   0.19393   0.80151   1.000
    O361    O    0.86909   0.21655   0.82209   1.000
    O362    O    0.25272   0.61046   0.82406   1.000
    O363    O    0.04969   0.46496   0.84462   1.000
    O364    O    0.73857   0.43482   0.83439   1.000
    O365    O    0.94320   0.80162   0.80607   1.000
    O366    O    0.88598   0.75860   0.83552   1.000
    O367    O    0.65724   0.74937   0.82204   1.000
    O368    O    0.73142   0.73129   0.84497   1.000
    O369    O    0.48898   0.59057   0.83107   1.000
    O370    O    0.78394   0.23734   0.83971   1.000
    O371    O    0.69664   0.25760   0.85753   1.000
    O372    O    0.42274   0.56266   0.87105   1.000
    O373    O    0.69638   0.47699   0.85726   1.000
    O374    O    0.84815   0.26229   0.87781   1.000
    O375    O    0.81738   0.71344   0.86619   1.000
    O376    O    0.90600   0.69207   0.88820   1.000
    O377    O    0.68602   0.41041   0.88392   1.000
    O378    O    0.74834   0.45633   0.89063   1.000
    O379    O    0.75271   0.67594   0.88996   1.000
    O380    O    0.11269   0.42918   0.88029   1.000
    O381    O    0.18612   0.38407   0.91030   1.000
    O382    O    0.65669   0.32778   0.89365   1.000
    O383    O    0.62070   0.26130   0.90782   1.000
    O384    O    0.03613   0.47784   0.94326   1.000
    O385    O    0.61242   0.38039   0.92881   1.000
    O386    O    0.45114   0.51922   0.95193   1.000
    O387    O    0.98905   0.66903   0.90944   1.000
    O388    O    0.92285   0.62901   0.93744   1.000
    O389    O    0.23856   0.33437   0.93459   1.000
    O390    O    0.57389   0.20444   0.93000   1.000
    O391    O    0.55357   0.27204   0.95206   1.000
    O392    O    0.24830   0.39050   0.95639   1.000
    O393    O    0.54924   0.34477   0.96440   1.000
    O394    O    0.53593   0.44332   0.97764   1.000
    O395    O    0.95127   0.54808   0.98084   1.000
loop_
    _geom_bond_atom_site_label_1
    _geom_bond_atom_site_label_2
    _geom_bond_distance
    _geom_bond_site_symmetry_2
    _ccdc_geom_bond_type
    C35    O188      0.50960  1_554   S
    C107   O188      0.50960      .   S
    C160   O189      0.69302      .   S
    C161   O189      0.69302      .   S
    C160   O190      0.65545      .   S
    C115   O190      0.65545      .   S
    C25    O191      0.54974      .   S
    C97    O191      0.54974      .   S
    C172   O192      0.65143      .   S
    C68    O192      0.65143      .   S
    C172   O193      0.99217      .   S
    C0     O193      0.99217  1_556   S
    C161   O194      0.66677      .   S
    C116   O194      0.66677      .   S
    C161   O195      1.00834      .   S
    C3     O195      1.00834  1_556   S
    C97    O196      0.54828      .   S
    C26    O196      0.54828      .   S
    C97    O197      0.73886      .   S
    C96    O197      0.73886      .   S
    C97    O198      0.54939      .   S
    C27    O198      0.54939  1_556   S
    C115   O199      0.54165      .   S
    C40    O199      0.54165      .   S
    C115   O200      0.68896      .   S
    C162   O200      0.68896      .   S
    C41    O201      0.54969      .   S
    C117   O201      0.54969      .   S
    C68    O202      0.62388      .   S
    C173   O202      0.62388  1_455   S
    C68    O203      0.75354      .   S
    C69    O203      0.75354      .   S
    C7     O204      0.54322      .   S
    C74    O204      0.54322      .   S
    C37    O205      0.54510      .   S
    C111   O205      0.54510      .   S
    C184   O206      0.65140      .   S
    C128   O206      0.65140      .   S
    C184   O207      0.99220      .   S
    C3     O207      0.99220  1_556   S
    C116   O208      0.68664      .   S
    C162   O208      0.68664      .   S
    C116   O209      0.73888      .   S
    C117   O209      0.73888      .   S
    C155   O210      0.66676      .   S
    C96    O210      0.66676      .   S
    C155   O211      0.69301      .   S
    C154   O211      0.69301      .   S
    C155   O212      1.00841      .   S
    C0     O212      1.00841  1_656   S
    C162   O213      0.71689      .   S
    C112   O213      0.71689      .   S
    C96    O214      0.68666      .   S
    C156   O214      0.68666      .   S
    C74    O215      0.70015      .   S
    C69    O215      0.70015      .   S
    C74    O216      0.69557      .   S
    C73    O216      0.69557      .   S
    C117   O217      0.54940      .   S
    C43    O217      0.54940      .   S
    C117   O218      0.54829      .   S
    C42    O218      0.54829      .   S
    C69    O219      0.70107      .   S
    C70    O219      0.70107      .   S
    C55    O220      0.54322      .   S
    C134   O220      0.54322      .   S
    C111   O221      0.69938      .   S
    C112   O221      0.69938      .   S
    C111   O222      0.69698      .   S
    C110   O222      0.69698      .   S
    C128   O223      0.62371      .   S
    C185   O223      0.62371      .   S
    C128   O224      0.75356      .   S
    C129   O224      0.75356      .   S
    C8     O225      0.54169      .   S
    C75    O225      0.54169      .   S
    C112   O226      0.69802      .   S
    C113   O226      0.69802      .   S
    C6     O227      0.54494      .   S
    C73    O227      0.54494      .   S
    C73    O228      0.69827      .   S
    C72    O228      0.69827      .   S
    C36    O229      0.54475      .   S
    C110   O229      0.54475      .   S
    C70    O230      0.54478      .   S
    C4     O230      0.54478      .   S
    C70    O231      0.69728      .   S
    C71    O231      0.69728      .   S
    C154   O232      0.65545      .   S
    C95    O232      0.65545      .   S
    C134   O233      0.70014      .   S
    C129   O233      0.70014      .   S
    C134   O234      0.69558      .   S
    C133   O234      0.69558      .   S
    C110   O235      0.70135      .   S
    C109   O235      0.70135      .   S
    C21    O236      0.54512      .   S
    C91    O236      0.54512      .   S
    C156   O237      0.68892      .   S
    C95    O237      0.68892      .   S
    C156   O238      0.71691      .   S
    C92    O238      0.71691      .   S
    C129   O239      0.70135      .   S
    C130   O239      0.70135      .   S
    C72    O240      0.69938      .   S
    C71    O240      0.69938      .   S
    C72    O241      0.71688      .   S
    C150   O241      0.71688      .   S
    C71    O242      0.54511      .   S
    C5     O242      0.54511      .   S
    C54    O243      0.54496      .   S
    C133   O243      0.54496      .   S
    C75    O244      0.68895      .   S
    C150   O244      0.68895      .   S
    C75    O245      0.65543      .   S
    C148   O245      0.65543      .   S
    C113   O246      0.54501      .   S
    C38    O246      0.54501      .   S
    C113   O247      0.69574      .   S
    C114   O247      0.69574      .   S
    C133   O248      0.69825      .   S
    C132   O248      0.69825      .   S
    C95    O249      0.54163      .   S
    C24    O249      0.54163      .   S
    C91    O250      0.69936      .   S
    C92    O250      0.69936      .   S
    C91    O251      0.69699      .   S
    C90    O251      0.69699      .   S
    C92    O252      0.69828      .   S
    C93    O252      0.69828      .   S
    C109   O253      0.70014      .   S
    C114   O253      0.70014      .   S
    C109   O254      0.75326      .   S
    C108   O254      0.75326      .   S
    C150   O255      0.68662      .   S
    C76    O255      0.68662      .   S
    C130   O256      0.54476      .   S
    C52    O256      0.54476      .   S
    C130   O257      0.69697      .   S
    C131   O257      0.69697      .   S
    C114   O258      0.54324      .   S
    C39    O258      0.54324      .   S
    C148   O259      0.69305      .   S
    C149   O259      0.69305      .   S
    C58    O260      0.54794      .   S
    C137   O260      0.54794      .   S
    C20    O261      0.54476      .   S
    C90    O261      0.54476      .   S
    C90    O262      0.70056      .   S
    C89    O262      0.70056      .   S
    C93    O263      0.54494      .   S
    C22    O263      0.54494      .   S
    C93    O264      0.69555      .   S
    C94    O264      0.69555      .   S
    C181   O265      0.62387  1_455   S
    C108   O265      0.62387      .   S
    C132   O266      0.69935      .   S
    C131   O266      0.69935      .   S
    C132   O267      0.71690      .   S
    C168   O267      0.71690      .   S
    C108   O268      0.65186      .   S
    C180   O268      0.65186      .   S
    C59    O269      0.54943  1_565   S
    C137   O269      0.54943      .   S
    C131   O270      0.54515      .   S
    C53    O270      0.54515      .   S
    C89    O271      0.70021      .   S
    C94    O271      0.70021      .   S
    C89    O272      0.75423      .   S
    C88    O272      0.75423      .   S
    C137   O273      0.73902      .   S
    C136   O273      0.73902      .   S
    C137   O274      0.54998      .   S
    C57    O274      0.54998      .   S
    C94    O275      0.54324      .   S
    C23    O275      0.54324      .   S
    C76    O276      0.66676      .   S
    C149   O276      0.66676      .   S
    C76    O277      0.73889      .   S
    C77    O277      0.73889      .   S
    C168   O278      0.68662      .   S
    C136   O278      0.68662      .   S
    C168   O279      0.68894      .   S
    C135   O279      0.68894      .   S
    C149   O280      1.00818      .   S
    C1     O280      1.00818      .   S
    C136   O281      0.66675      .   S
    C167   O281      0.66675      .   S
    C180   O282      0.99227      .   S
    C2     O282      0.99227  1_545   S
    C177   O283      0.62371      .   S
    C88    O283      0.62371      .   S
    C88    O284      0.65140      .   S
    C176   O284      0.65140      .   S
    C10    O285      0.54829      .   S
    C77    O285      0.54829      .   S
    C56    O286      0.54165      .   S
    C135   O286      0.54165      .   S
    C135   O287      0.65543      .   S
    C166   O287      0.65543      .   S
    C77    O288      0.54969      .   S
    C9     O288      0.54969      .   S
    C77    O289      0.54938      .   S
    C11    O289      0.54938      .   S
    C167   O290      0.69301      .   S
    C166   O290      0.69301      .   S
    C167   O291      1.00837      .   S
    C2     O291      1.00837  1_655   S
    C176   O292      0.99237      .   S
    C1     O292      0.99237  1_545   S
    C19    O293      0.54936      .   S
    C87    O293      0.54936      .   S
    C1     O294      0.99263      .   S
    C178   O294      0.99263      .   S
    C1     O295      1.00835  1_545   S
    C152   O295      1.00835      .   S
    C2     O296      1.00828  1_645   S
    C170   O296      1.00828      .   S
    C2     O297      0.99213      .   S
    C182   O297      0.99213      .   S
    C169   O298      0.69303      .   S
    C170   O298      0.69303      .   S
    C169   O299      0.65546      .   S
    C145   O299      0.65546      .   S
    C17    O300      0.54974      .   S
    C87    O300      0.54974      .   S
    C178   O301      0.65142      .   S
    C98    O301      0.65142      .   S
    C170   O302      0.66676      .   S
    C146   O302      0.66676      .   S
    C87    O303      0.54828      .   S
    C18    O303      0.54828      .   S
    C87    O304      0.73855      .   S
    C86    O304      0.73855      .   S
    C145   O305      0.54163      .   S
    C64    O305      0.54163      .   S
    C145   O306      0.68893      .   S
    C171   O306      0.68893      .   S
    C65    O307      0.54977      .   S
    C147   O307      0.54977      .   S
    C98    O308      0.62371      .   S
    C179   O308      0.62371      .   S
    C98    O309      0.75355      .   S
    C99    O309      0.75355      .   S
    C31    O310      0.54319      .   S
    C104   O310      0.54319      .   S
    C61    O311      0.54514      .   S
    C141   O311      0.54514      .   S
    C182   O312      0.65185      .   S
    C118   O312      0.65185      .   S
    C146   O313      0.68661      .   S
    C171   O313      0.68661      .   S
    C146   O314      0.73885      .   S
    C147   O314      0.73885      .   S
    C152   O315      0.66671      .   S
    C86    O315      0.66671      .   S
    C152   O316      0.69301      .   S
    C151   O316      0.69301      .   S
    C171   O317      0.71694      .   S
    C142   O317      0.71694      .   S
    C86    O318      0.68709      .   S
    C153   O318      0.68709      .   S
    C104   O319      0.70012      .   S
    C99    O319      0.70012      .   S
    C104   O320      0.69559      .   S
    C103   O320      0.69559      .   S
    C147   O321      0.50986      .   S
    C67    O321      0.50986  1_545   S
    C147   O322      0.54827      .   S
    C66    O322      0.54827      .   S
    C99    O323      0.70142      .   S
    C100   O323      0.70142      .   S
    C47    O324      0.54317      .   S
    C124   O324      0.54317      .   S
    C141   O325      0.69935      .   S
    C142   O325      0.69935      .   S
    C141   O326      0.69700      .   S
    C140   O326      0.69700      .   S
    C118   O327      0.62381      .   S
    C183   O327      0.62381  1_455   S
    C118   O328      0.75359      .   S
    C119   O328      0.75359      .   S
    C32    O329      0.54167      .   S
    C105   O329      0.54167      .   S
    C142   O330      0.69831      .   S
    C143   O330      0.69831      .   S
    C30    O331      0.54494      .   S
    C103   O331      0.54494      .   S
    C103   O332      0.69826      .   S
    C102   O332      0.69826      .   S
    C60    O333      0.54476      .   S
    C140   O333      0.54476      .   S
    C100   O334      0.54475      .   S
    C28    O334      0.54475      .   S
    C100   O335      0.69697      .   S
    C101   O335      0.69697      .   S
    C151   O336      0.65545      .   S
    C85    O336      0.65545      .   S
    C124   O337      0.70014      .   S
    C119   O337      0.70014      .   S
    C124   O338      0.69559      .   S
    C123   O338      0.69559      .   S
    C140   O339      0.70113      .   S
    C139   O339      0.70113      .   S
    C13    O340      0.54513      .   S
    C81    O340      0.54513      .   S
    C153   O341      0.68896      .   S
    C85    O341      0.68896      .   S
    C153   O342      0.71692      .   S
    C82    O342      0.71692      .   S
    C119   O343      0.70140      .   S
    C120   O343      0.70140      .   S
    C102   O344      0.69937      .   S
    C101   O344      0.69937      .   S
    C102   O345      0.71694      .   S
    C159   O345      0.71694      .   S
    C101   O346      0.54510      .   S
    C29    O346      0.54510      .   S
    C46    O347      0.54494      .   S
    C123   O347      0.54494      .   S
    C105   O348      0.68892      .   S
    C159   O348      0.68892      .   S
    C105   O349      0.65501      .   S
    C157   O349      0.65501      .   S
    C143   O350      0.54493      .   S
    C62    O350      0.54493      .   S
    C143   O351      0.69555      .   S
    C144   O351      0.69555      .   S
    C123   O352      0.69829      .   S
    C122   O352      0.69829      .   S
    C85    O353      0.54167      .   S
    C16    O353      0.54167      .   S
    C81    O354      0.69938      .   S
    C82    O354      0.69938      .   S
    C81    O355      0.69698      .   S
    C80    O355      0.69698      .   S
    C82    O356      0.69826      .   S
    C83    O356      0.69826      .   S
    C139   O357      0.70019      .   S
    C144   O357      0.70019      .   S
    C139   O358      0.75374      .   S
    C138   O358      0.75374      .   S
    C159   O359      0.68663      .   S
    C106   O359      0.68663      .   S
    C120   O360      0.54474      .   S
    C44    O360      0.54474      .   S
    C120   O361      0.69697      .   S
    C121   O361      0.69697      .   S
    C144   O362      0.54322      .   S
    C63    O362      0.54322      .   S
    C157   O363      0.69359      .   S
    C158   O363      0.69359      .   S
    C50    O364      0.54829      .   S
    C127   O364      0.54829      .   S
    C12    O365      0.54475      .   S
    C80    O365      0.54475      .   S
    C80    O366      0.70140      .   S
    C79    O366      0.70140      .   S
    C83    O367      0.54494      .   S
    C14    O367      0.54494      .   S
    C83    O368      0.69556      .   S
    C84    O368      0.69556      .   S
    C187   O369      0.62371      .   S
    C138   O369      0.62371      .   S
    C122   O370      0.69938      .   S
    C121   O370      0.69938      .   S
    C122   O371      0.71364      .   S
    C165   O371      0.71364      .   S
    C138   O372      0.65143      .   S
    C186   O372      0.65143      .   S
    C51    O373      0.54939      .   S
    C127   O373      0.54939      .   S
    C121   O374      0.54512      .   S
    C45    O374      0.54512      .   S
    C79    O375      0.70014      .   S
    C84    O375      0.70014      .   S
    C79    O376      0.75355      .   S
    C78    O376      0.75355      .   S
    C127   O377      0.73867      .   S
    C126   O377      0.73867      .   S
    C127   O378      0.54968      .   S
    C49    O378      0.54968      .   S
    C84    O379      0.54321      .   S
    C15    O379      0.54321      .   S
    C106   O380      0.66678      .   S
    C158   O380      0.66678      .   S
    C106   O381      0.73890      .   S
    C107   O381      0.73890      .   S
    C165   O382      0.68759      .   S
    C126   O382      0.68759      .   S
    C165   O383      0.69170      .   S
    C125   O383      0.69170      .   S
    C158   O384      1.00843      .   S
    C0     O384      1.00843  1_655   S
    C126   O385      0.66708      .   S
    C164   O385      0.66708      .   S
    C186   O386      0.99225      .   S
    C3     O386      0.99225      .   S
    C175   O387      0.62391  1_455   S
    C78    O387      0.62391      .   S
    C78    O388      0.65148      .   S
    C174   O388      0.65148      .   S
    C34    O389      0.54829      .   S
    C107   O389      0.54829      .   S
    C48    O390      0.54165      .   S
    C125   O390      0.54165      .   S
    C125   O391      0.65544      .   S
    C163   O391      0.65544      .   S
    C107   O392      0.54966      .   S
    C33    O392      0.54966      .   S
    C164   O393      0.69304      .   S
    C163   O393      0.69304      .   S
    C164   O394      1.00836      .   S
    C3     O394      1.00836      .   S
    C174   O395      0.99222      .   S
    C0     O395      0.99222      .   S
