# CIF file generated by openbabel 2.4.90, see http://openbabel.sf.net
data_I
_chemical_name_common ''
_cell_length_a 13.315
_cell_length_b 14.537
_cell_length_c 14.537
_cell_angle_alpha 89.98
_cell_angle_beta 90.001
_cell_angle_gamma 90.016
_space_group_name_H-M_alt 'P 1'
_space_group_name_Hall 'P 1'
loop_
    _symmetry_equiv_pos_as_xyz
    x,y,z
loop_
    _atom_site_label
    _atom_site_type_symbol
    _atom_site_fract_x
    _atom_site_fract_y
    _atom_site_fract_z
    _atom_site_occupancy
    N0      N    0.22480   0.33891   0.77236   1.000
    N1      N    0.72454   0.16132   0.27276   1.000
    N2      N    0.72455   0.83868   0.72726   1.000
    N3      N    0.22478   0.66110   0.22728   1.000
    N4      N    0.22476   0.77237   0.66109   1.000
    N5      N    0.22479   0.22735   0.33899   1.000
    N6      N    0.72459   0.72725   0.16135   1.000
    N7      N    0.72456   0.27282   0.83855   1.000
    Zr8     Zr   0.46586   0.50001   0.00001   1.000
    O9      O    0.54806   0.57099   0.04591   1.000
    O10     O    0.54805   0.42904   0.95405   1.000
    O11     O    0.39065   0.40389   0.13278   1.000
    O12     O    0.39062   0.59606   0.86725   1.000
    Zr13    Zr   0.46569   0.99997   0.50002   1.000
    O14     O    0.39051   0.13271   0.59607   1.000
    O15     O    0.39053   0.86725   0.40385   1.000
    O16     O    0.54793   0.04590   0.42903   1.000
    O17     O    0.54794   0.95408   0.57102   1.000
    Zr18    Zr   0.96582   0.00001   0.49997   1.000
    O19     O    0.04810   0.92892   0.54581   1.000
    O20     O    0.04811   0.07103   0.45420   1.000
    O21     O    0.89052   0.09617   0.63263   1.000
    O22     O    0.89055   0.90387   0.36731   1.000
    Zr23    Zr   0.96596   0.49997   0.99999   1.000
    O24     O    0.04821   0.45417   0.92890   1.000
    O25     O    0.04820   0.54580   0.07099   1.000
    O26     O    0.89064   0.36728   0.09614   1.000
    O27     O    0.89062   0.63267   0.90386   1.000
loop_
    _geom_bond_atom_site_label_1
    _geom_bond_atom_site_label_2
    _geom_bond_distance
    _geom_bond_site_symmetry_2
    _ccdc_geom_bond_type
    Zr8    O9        1.64557      .   S
    N6     O9        3.67423      .   S
    Zr8    O10       1.64603  1_554   S
    N7     O10       3.67500      .   S
    Zr8    O11       2.58423      .   S
    N5     O11       4.52109      .   S
    Zr8    O12       2.58393  1_554   S
    N4     O12       4.51945      .   S
    Zr13   O14       2.58418  1_565   S
    N0     O14       4.51999      .   S
    Zr13   O15       2.58450      .   S
    N3     O15       4.52119      .   S
    Zr13   O16       1.64585  1_565   S
    N1     O16       3.67448      .   S
    Zr13   O17       1.64599      .   S
    N2     O17       3.67461      .   S
    Zr18   O19       1.64698  1_645   S
    N4     O19       3.67702      .   S
    Zr18   O20       1.64559  1_655   S
    N5     O20       3.67396      .   S
    Zr18   O21       2.58474      .   S
    N7     O21       4.52188      .   S
    Zr18   O22       2.58419  1_545   S
    N6     O22       4.52120      .   S
    Zr23   O24       1.64664  1_655   S
    N0     O24       3.67683      .   S
    Zr23   O25       1.64570  1_656   S
    N3     O25       3.67418      .   S
    Zr23   O26       2.58400  1_556   S
    N1     O26       4.52091      .   S
    Zr23   O27       2.58454      .   S
    N2     O27       4.52175      .   S
