# CIF file generated by openbabel 2.4.90, see http://openbabel.sf.net
data_I
_chemical_name_common ''
_cell_length_a 18.3
_cell_length_b 17.826
_cell_length_c 15.734
_cell_angle_alpha 90
_cell_angle_beta 90
_cell_angle_gamma 90
_space_group_name_H-M_alt 'P 1'
_space_group_name_Hall 'P 1'
loop_
    _symmetry_equiv_pos_as_xyz
    x,y,z
loop_
    _atom_site_label
    _atom_site_type_symbol
    _atom_site_fract_x
    _atom_site_fract_y
    _atom_site_fract_z
    _atom_site_occupancy
    Cd0     Cd   0.50000   0.25001   0.04646   1.000
    Cd1     Cd   0.00000   0.75002   0.45353   1.000
    Cd2     Cd   0.50000   0.75002   0.45353   1.000
    Cd3     Cd   1.00000   0.75002   0.95352   1.000
    Cd4     Cd   0.50000   0.75002   0.95352   1.000
    Cd5     Cd   1.00000   0.25001   0.54645   1.000
    Cd6     Cd   0.50000   0.25001   0.54645   1.000
    Cd7     Cd   0.00000   0.25001   0.04646   1.000
    Cl8     Cl   0.60020   0.64381   0.44648   1.000
    Cl9     Cl   0.39981   0.85623   0.44648   1.000
    Cl10    Cl   0.89981   0.85623   0.44640   1.000
    Cl11    Cl   0.39981   0.64381   0.94647   1.000
    Cl12    Cl   0.89981   0.64381   0.94647   1.000
    Cl13    Cl   0.10019   0.85623   0.94647   1.000
    Cl14    Cl   0.60019   0.85623   0.94647   1.000
    Cl15    Cl   0.39981   0.35622   0.55350   1.000
    Cl16    Cl   0.10019   0.35622   0.05351   1.000
    Cl17    Cl   0.60020   0.35622   0.05351   1.000
    Cl18    Cl   0.39981   0.14379   0.05351   1.000
    Cl19    Cl   0.89981   0.14379   0.05351   1.000
    Cl20    Cl   0.10019   0.64381   0.44648   1.000
    Cl21    Cl   0.89981   0.35622   0.55350   1.000
    Cl22    Cl   0.10019   0.14379   0.55350   1.000
    Cl23    Cl   0.60019   0.14379   0.55350   1.000
loop_
    _geom_bond_atom_site_label_1
    _geom_bond_atom_site_label_2
    _geom_bond_distance
    _geom_bond_site_symmetry_2
    _ccdc_geom_bond_type
    Cd0    Cl18      2.63798      .   S
    Cd0    Cl17      2.63798      .   S
    Cd7    Cl19      2.63794  1_455   S
    Cd7    Cl16      2.63798      .   S
    Cl10   Cd1       2.63799  1_655   S
    Cl20   Cd1       2.63798      .   S
    Cl8    Cd2       2.63799      .   S
    Cl9    Cd2       2.63798      .   S
    Cd6    Cl15      2.63799      .   S
    Cd6    Cl23      2.63798      .   S
    Cd5    Cl21      2.63793      .   S
    Cd5    Cl22      2.63797  1_655   S
    Cl11   Cd4       2.63798      .   S
    Cl12   Cd3       2.63793      .   S
    Cl13   Cd3       2.63798  1_455   S
    Cl14   Cd4       2.63798      .   S
