# CIF file generated by openbabel 2.4.90, see http://openbabel.sf.net
data_I
_chemical_name_common 'VESTA_phase_1'
_cell_length_a 15.945
_cell_length_b 19.362
_cell_length_c 21.91
_cell_angle_alpha 64.228
_cell_angle_beta 88.743
_cell_angle_gamma 76.382
_space_group_name_H-M_alt 'P 1'
_space_group_name_Hall 'P 1'
loop_
    _symmetry_equiv_pos_as_xyz
    x,y,z
loop_
    _atom_site_label
    _atom_site_type_symbol
    _atom_site_fract_x
    _atom_site_fract_y
    _atom_site_fract_z
    _atom_site_occupancy
    Zn0     Zn   0.18441   0.22544   0.22480   1.000
    Zn1     Zn   0.18174   0.22657   0.72550   1.000
    Zn2     Zn   0.18442   0.72545   0.22481   1.000
    Zn3     Zn   0.18173   0.72658   0.72550   1.000
    Zn4     Zn   0.68443   0.22544   0.22481   1.000
    Zn5     Zn   0.68174   0.22658   0.72550   1.000
    Zn6     Zn   0.68443   0.72545   0.22480   1.000
    Zn7     Zn   0.68175   0.72658   0.72550   1.000
    Zn8     Zn   0.31826   0.27340   0.27448   1.000
    Zn9     Zn   0.31559   0.27453   0.77517   1.000
    Zn10    Zn   0.31826   0.77340   0.27448   1.000
    Zn11    Zn   0.31558   0.77454   0.77510   1.000
    Zn12    Zn   0.81828   0.27340   0.27448   1.000
    Zn13    Zn   0.81560   0.27453   0.77517   1.000
    Zn14    Zn   0.81827   0.77340   0.27448   1.000
    Zn15    Zn   0.81561   0.77453   0.77517   1.000
    H16     H    0.04688   0.09723   0.27779   1.000
    H17     H    0.04452   0.09850   0.77840   1.000
    H18     H    0.04688   0.59724   0.27779   1.000
    H19     H    0.04453   0.59851   0.77840   1.000
    H20     H    0.54689   0.09724   0.27778   1.000
    H21     H    0.54454   0.09850   0.77840   1.000
    H22     H    0.54689   0.59725   0.27779   1.000
    H23     H    0.54453   0.59851   0.77840   1.000
    H24     H    0.34626   0.02045   0.21539   1.000
    H25     H    0.34391   0.02171   0.71601   1.000
    H26     H    0.34627   0.52045   0.21539   1.000
    H27     H    0.34391   0.52172   0.71600   1.000
    H28     H    0.84628   0.02045   0.21539   1.000
    H29     H    0.84392   0.02171   0.71600   1.000
    H30     H    0.84628   0.52046   0.21539   1.000
    H31     H    0.84393   0.52172   0.71600   1.000
    H32     H    0.20938   0.14220   0.13751   1.000
    H33     H    0.20795   0.14280   0.63880   1.000
    H34     H    0.20939   0.64221   0.13751   1.000
    H35     H    0.20793   0.64279   0.63887   1.000
    H36     H    0.70942   0.14222   0.13750   1.000
    H37     H    0.70796   0.14280   0.63886   1.000
    H38     H    0.70941   0.64223   0.13750   1.000
    H39     H    0.70796   0.64279   0.63887   1.000
    H40     H    0.13922   0.15791   0.03130   1.000
    H41     H    0.13923   0.15795   0.53237   1.000
    H42     H    0.13924   0.65792   0.03131   1.000
    H43     H    0.13921   0.65794   0.53230   1.000
    H44     H    0.63927   0.15794   0.03130   1.000
    H45     H    0.63924   0.15796   0.53237   1.000
    H46     H    0.63926   0.65794   0.03130   1.000
    H47     H    0.63923   0.65794   0.53238   1.000
    H48     H    0.14692   0.01530   0.40861   1.000
    H49     H    0.14605   0.01508   0.90924   1.000
    H50     H    0.14693   0.51531   0.40861   1.000
    H51     H    0.14604   0.51509   0.90924   1.000
    H52     H    0.64694   0.01530   0.40861   1.000
    H53     H    0.64606   0.01509   0.90924   1.000
    H54     H    0.64694   0.51531   0.40861   1.000
    H55     H    0.64606   0.51509   0.90924   1.000
    H56     H    0.99761   0.29600   0.16272   1.000
    H57     H    0.99499   0.29691   0.66237   1.000
    H58     H    0.99761   0.79599   0.16273   1.000
    H59     H    0.99499   0.79694   0.66236   1.000
    H60     H    0.49761   0.29597   0.16273   1.000
    H61     H    0.49500   0.29692   0.66237   1.000
    H62     H    0.49761   0.79598   0.16273   1.000
    H63     H    0.49501   0.79693   0.66237   1.000
    H64     H    0.33283   0.10146   0.47603   1.000
    H65     H    0.33136   0.10254   0.97578   1.000
    H66     H    0.33284   0.60146   0.47603   1.000
    H67     H    0.33136   0.60255   0.97570   1.000
    H68     H    0.83285   0.10145   0.47603   1.000
    H69     H    0.83137   0.10254   0.97578   1.000
    H70     H    0.83284   0.60147   0.47603   1.000
    H71     H    0.83137   0.60255   0.97570   1.000
    H72     H    0.41850   0.31996   0.05770   1.000
    H73     H    0.41730   0.32045   0.55692   1.000
    H74     H    0.41849   0.81997   0.05770   1.000
    H75     H    0.41731   0.82046   0.55692   1.000
    H76     H    0.91852   0.32000   0.05768   1.000
    H77     H    0.91732   0.32045   0.55690   1.000
    H78     H    0.91852   0.81998   0.05769   1.000
    H79     H    0.91732   0.82047   0.55690   1.000
    H80     H    0.45547   0.40148   0.22156   1.000
    H81     H    0.45313   0.40273   0.72219   1.000
    H82     H    0.45546   0.90149   0.22156   1.000
    H83     H    0.45313   0.90273   0.72219   1.000
    H84     H    0.95548   0.40148   0.22150   1.000
    H85     H    0.95315   0.40272   0.72210   1.000
    H86     H    0.95548   0.90149   0.22156   1.000
    H87     H    0.95314   0.90274   0.72219   1.000
    H88     H    0.15609   0.47825   0.28390   1.000
    H89     H    0.15373   0.47953   0.78458   1.000
    H90     H    0.15609   0.97825   0.28397   1.000
    H91     H    0.15373   0.97954   0.78450   1.000
    H92     H    0.65610   0.47825   0.28396   1.000
    H93     H    0.65374   0.47954   0.78457   1.000
    H94     H    0.65610   0.97826   0.28396   1.000
    H95     H    0.65375   0.97954   0.78457   1.000
    H96     H    0.29206   0.35720   0.36109   1.000
    H97     H    0.29062   0.35774   0.86247   1.000
    H98     H    0.29206   0.85719   0.36110   1.000
    H99     H    0.29061   0.85774   0.86247   1.000
    H100    H    0.79208   0.35720   0.36109   1.000
    H101    H    0.79061   0.35772   0.86240   1.000
    H102    H    0.79207   0.85719   0.36110   1.000
    H103    H    0.79063   0.85773   0.86248   1.000
    H104    H    0.36079   0.34206   0.46750   1.000
    H105    H    0.36077   0.34203   0.96867   1.000
    H106    H    0.36078   0.84204   0.46759   1.000
    H107    H    0.36076   0.84203   0.96867   1.000
    H108    H    0.86081   0.34206   0.46758   1.000
    H109    H    0.86076   0.34200   0.96869   1.000
    H110    H    0.86079   0.84204   0.46759   1.000
    H111    H    0.86077   0.84201   0.96868   1.000
    H112    H    0.35396   0.48488   0.09073   1.000
    H113    H    0.35308   0.48467   0.59136   1.000
    H114    H    0.35396   0.98488   0.09074   1.000
    H115    H    0.35307   0.98468   0.59136   1.000
    H116    H    0.85397   0.48488   0.09070   1.000
    H117    H    0.85309   0.48467   0.59136   1.000
    H118    H    0.85397   0.98489   0.09073   1.000
    H119    H    0.85309   0.98467   0.59136   1.000
    H120    H    0.50500   0.20305   0.33760   1.000
    H121    H    0.50241   0.20399   0.83724   1.000
    H122    H    0.50501   0.70306   0.33760   1.000
    H123    H    0.50241   0.70400   0.83720   1.000
    H124    H    0.00000   0.20305   0.33760   1.000
    H125    H    0.00000   0.20401   0.83722   1.000
    H126    H    0.00000   0.70307   0.33760   1.000
    H127    H    0.00000   0.70400   0.83723   1.000
    H128    H    0.16864   0.39742   0.02420   1.000
    H129    H    0.16717   0.39851   0.52390   1.000
    H130    H    0.16864   0.89743   0.02420   1.000
    H131    H    0.16717   0.89852   0.52394   1.000
    H132    H    0.66866   0.39742   0.02420   1.000
    H133    H    0.66718   0.39851   0.52390   1.000
    H134    H    0.66866   0.89743   0.02419   1.000
    H135    H    0.66719   0.89852   0.52394   1.000
    H136    H    0.08270   0.17952   0.44305   1.000
    H137    H    0.08153   0.18003   0.94225   1.000
    H138    H    0.08270   0.67954   0.44304   1.000
    H139    H    0.08152   0.68001   0.94227   1.000
    H140    H    0.58271   0.17952   0.44305   1.000
    H141    H    0.58154   0.18000   0.94227   1.000
    H142    H    0.58271   0.67953   0.44305   1.000
    H143    H    0.58152   0.68000   0.94227   1.000
    C144    C    0.22872   0.13477   0.36643   1.000
    C145    C    0.22624   0.13569   0.86688   1.000
    C146    C    0.22874   0.63476   0.36643   1.000
    C147    C    0.22626   0.63569   0.86687   1.000
    C148    C    0.72874   0.13477   0.36643   1.000
    C149    C    0.72626   0.13568   0.86688   1.000
    C150    C    0.72874   0.63478   0.36643   1.000
    C151    C    0.72628   0.63568   0.86687   1.000
    C152    C    0.23845   0.06552   0.43568   1.000
    C153    C    0.23713   0.06599   0.93590   1.000
    C154    C    0.23843   0.56554   0.43569   1.000
    C155    C    0.23710   0.56601   0.93593   1.000
    C156    C    0.73847   0.06552   0.43568   1.000
    C157    C    0.73712   0.06600   0.93593   1.000
    C158    C    0.73846   0.56553   0.43568   1.000
    C159    C    0.73711   0.56601   0.93593   1.000
    C160    C    0.19182   0.00815   0.44890   1.000
    C161    C    0.19133   0.00802   0.94930   1.000
    C162    C    0.19184   0.50814   0.44894   1.000
    C163    C    0.19135   0.50802   0.94929   1.000
    C164    C    0.69184   0.00815   0.44890   1.000
    C165    C    0.69136   0.00802   0.94929   1.000
    C166    C    0.69184   0.50816   0.44894   1.000
    C167    C    0.69137   0.50802   0.94929   1.000
    C168    C    0.29665   0.05673   0.48729   1.000
    C169    C    0.29585   0.05732   0.98717   1.000
    C170    C    0.29668   0.55672   0.48728   1.000
    C171    C    0.29587   0.55732   0.98715   1.000
    C172    C    0.79667   0.05672   0.48729   1.000
    C173    C    0.79587   0.05731   0.98716   1.000
    C174    C    0.79667   0.55674   0.48720   1.000
    C175    C    0.79588   0.55732   0.98715   1.000
    C176    C    0.37339   0.13777   0.24243   1.000
    C177    C    0.37113   0.13898   0.74323   1.000
    C178    C    0.37339   0.63777   0.24244   1.000
    C179    C    0.37111   0.63900   0.74322   1.000
    C180    C    0.87341   0.13776   0.24245   1.000
    C181    C    0.87113   0.13899   0.74320   1.000
    C182    C    0.87340   0.63777   0.24244   1.000
    C183    C    0.87114   0.63899   0.74322   1.000
    C184    C    0.02709   0.05434   0.26545   1.000
    C185    C    0.02473   0.05563   0.76604   1.000
    C186    C    0.02709   0.55436   0.26544   1.000
    C187    C    0.02474   0.55563   0.76605   1.000
    C188    C    0.52710   0.05435   0.26543   1.000
    C189    C    0.52475   0.05562   0.76600   1.000
    C190    C    0.52711   0.55436   0.26544   1.000
    C191    C    0.52474   0.55564   0.76605   1.000
    C192    C    0.41434   0.01103   0.23004   1.000
    C193    C    0.41200   0.01229   0.73066   1.000
    C194    C    0.41435   0.51103   0.23005   1.000
    C195    C    0.41199   0.51231   0.73065   1.000
    C196    C    0.91436   0.01102   0.23005   1.000
    C197    C    0.91201   0.01230   0.73065   1.000
    C198    C    0.91436   0.51103   0.23000   1.000
    C199    C    0.91202   0.51231   0.73065   1.000
    C200    C    0.14453   0.18055   0.11760   1.000
    C201    C    0.14317   0.18107   0.61857   1.000
    C202    C    0.14454   0.68055   0.11760   1.000
    C203    C    0.14316   0.68107   0.61858   1.000
    C204    C    0.64456   0.18056   0.11767   1.000
    C205    C    0.64318   0.18108   0.61857   1.000
    C206    C    0.64455   0.68057   0.11760   1.000
    C207    C    0.64318   0.68107   0.61858   1.000
    C208    C    0.10444   0.19052   0.05783   1.000
    C209    C    0.10389   0.19076   0.55855   1.000
    C210    C    0.10445   0.69053   0.05783   1.000
    C211    C    0.10388   0.69075   0.55856   1.000
    C212    C    0.60447   0.19054   0.05782   1.000
    C213    C    0.60390   0.19076   0.55855   1.000
    C214    C    0.60446   0.69054   0.05782   1.000
    C215    C    0.60390   0.69075   0.55856   1.000
    C216    C    0.02181   0.24253   0.03264   1.000
    C217    C    0.02136   0.24271   0.53275   1.000
    C218    C    0.02181   0.74253   0.03264   1.000
    C219    C    0.02135   0.74272   0.53275   1.000
    C220    C    0.52183   0.24253   0.03264   1.000
    C221    C    0.52137   0.24272   0.53274   1.000
    C222    C    0.52182   0.74253   0.03264   1.000
    C223    C    0.52137   0.74271   0.53275   1.000
    C224    C    0.48279   0.27970   0.07242   1.000
    C225    C    0.48158   0.28017   0.57213   1.000
    C226    C    0.48278   0.77970   0.07242   1.000
    C227    C    0.48158   0.78017   0.57213   1.000
    C228    C    0.98281   0.27972   0.07241   1.000
    C229    C    0.98160   0.28016   0.57213   1.000
    C230    C    0.98281   0.77971   0.07242   1.000
    C231    C    0.98159   0.78018   0.57213   1.000
    C232    C    0.02671   0.26671   0.13197   1.000
    C233    C    0.02472   0.26745   0.63191   1.000
    C234    C    0.02671   0.76671   0.13198   1.000
    C235    C    0.02471   0.76747   0.63191   1.000
    C236    C    0.52672   0.26670   0.13198   1.000
    C237    C    0.52473   0.26745   0.63191   1.000
    C238    C    0.52672   0.76670   0.13198   1.000
    C239    C    0.52473   0.76746   0.63191   1.000
    C240    C    0.43965   0.06667   0.24562   1.000
    C241    C    0.43730   0.06792   0.74628   1.000
    C242    C    0.43966   0.56668   0.24562   1.000
    C243    C    0.43729   0.56793   0.74628   1.000
    C244    C    0.93967   0.06668   0.24561   1.000
    C245    C    0.93730   0.06792   0.74629   1.000
    C246    C    0.93967   0.56668   0.24562   1.000
    C247    C    0.93731   0.56793   0.74628   1.000
    C248    C    0.27374   0.36429   0.13310   1.000
    C249    C    0.27127   0.36521   0.63355   1.000
    C250    C    0.27376   0.86428   0.13309   1.000
    C251    C    0.27128   0.86521   0.63354   1.000
    C252    C    0.77375   0.36429   0.13310   1.000
    C253    C    0.77129   0.36521   0.63354   1.000
    C254    C    0.77376   0.86429   0.13310   1.000
    C255    C    0.77130   0.86521   0.63354   1.000
    C256    C    0.26290   0.43396   0.06404   1.000
    C257    C    0.26158   0.43443   0.56429   1.000
    C258    C    0.26287   0.93398   0.06405   1.000
    C259    C    0.26155   0.93446   0.56430   1.000
    C260    C    0.76292   0.43396   0.06404   1.000
    C261    C    0.76157   0.43445   0.56400   1.000
    C262    C    0.76290   0.93397   0.06404   1.000
    C263    C    0.76157   0.93446   0.56430   1.000
    C264    C    0.30865   0.49195   0.05068   1.000
    C265    C    0.30817   0.49183   0.55103   1.000
    C266    C    0.30867   0.99194   0.05068   1.000
    C267    C    0.30818   0.99183   0.55103   1.000
    C268    C    0.80866   0.49196   0.05068   1.000
    C269    C    0.80819   0.49182   0.55103   1.000
    C270    C    0.80867   0.99196   0.05068   1.000
    C271    C    0.80820   0.99182   0.55103   1.000
    C272    C    0.20413   0.44266   0.01282   1.000
    C273    C    0.20333   0.44325   0.51269   1.000
    C274    C    0.20416   0.94265   0.01281   1.000
    C275    C    0.20334   0.94325   0.51260   1.000
    C276    C    0.70415   0.44266   0.01282   1.000
    C277    C    0.70336   0.44324   0.51269   1.000
    C278    C    0.70416   0.94266   0.01281   1.000
    C279    C    0.70337   0.94325   0.51268   1.000
    C280    C    0.12886   0.36098   0.25674   1.000
    C281    C    0.12661   0.36220   0.75754   1.000
    C282    C    0.12887   0.86099   0.25674   1.000
    C283    C    0.12660   0.86221   0.75754   1.000
    C284    C    0.62889   0.36098   0.25674   1.000
    C285    C    0.62662   0.36220   0.75754   1.000
    C286    C    0.62887   0.86098   0.25675   1.000
    C287    C    0.62663   0.86221   0.75753   1.000
    C288    C    0.47526   0.44435   0.23390   1.000
    C289    C    0.47291   0.44561   0.73453   1.000
    C290    C    0.47525   0.94436   0.23392   1.000
    C291    C    0.47292   0.94563   0.73453   1.000
    C292    C    0.97527   0.44435   0.23391   1.000
    C293    C    0.97293   0.44561   0.73453   1.000
    C294    C    0.97527   0.94436   0.23391   1.000
    C295    C    0.97292   0.94562   0.73453   1.000
    C296    C    0.08800   0.48766   0.26931   1.000
    C297    C    0.08565   0.48895   0.76992   1.000
    C298    C    0.08801   0.98768   0.26931   1.000
    C299    C    0.08564   0.98896   0.76993   1.000
    C300    C    0.58802   0.48766   0.26931   1.000
    C301    C    0.58566   0.48895   0.76992   1.000
    C302    C    0.58801   0.98767   0.26931   1.000
    C303    C    0.58567   0.98896   0.76991   1.000
    C304    C    0.35683   0.31892   0.38130   1.000
    C305    C    0.35547   0.31940   0.88230   1.000
    C306    C    0.35683   0.81892   0.38139   1.000
    C307    C    0.35547   0.81941   0.88231   1.000
    C308    C    0.85685   0.31892   0.38139   1.000
    C309    C    0.85547   0.31939   0.88231   1.000
    C310    C    0.85684   0.81892   0.38139   1.000
    C311    C    0.85548   0.81940   0.88231   1.000
    C312    C    0.39612   0.30924   0.44140   1.000
    C313    C    0.39557   0.30943   0.94210   1.000
    C314    C    0.39612   0.80924   0.44141   1.000
    C315    C    0.39556   0.80943   0.94215   1.000
    C316    C    0.89614   0.30924   0.44140   1.000
    C317    C    0.89556   0.30941   0.94215   1.000
    C318    C    0.89612   0.80924   0.44141   1.000
    C319    C    0.89557   0.80942   0.94215   1.000
    C320    C    0.47865   0.25728   0.46721   1.000
    C321    C    0.47821   0.25743   0.96733   1.000
    C322    C    0.47865   0.75728   0.46722   1.000
    C323    C    0.47820   0.75743   0.96733   1.000
    C324    C    0.97867   0.25728   0.46722   1.000
    C325    C    0.97821   0.25743   0.96733   1.000
    C326    C    0.97866   0.75728   0.46722   1.000
    C327    C    0.97821   0.75743   0.96734   1.000
    C328    C    0.01842   0.21981   0.42784   1.000
    C329    C    0.01723   0.22029   0.92754   1.000
    C330    C    0.01842   0.71983   0.42780   1.000
    C331    C    0.01723   0.72027   0.92755   1.000
    C332    C    0.51843   0.21982   0.42783   1.000
    C333    C    0.51724   0.22027   0.92755   1.000
    C334    C    0.51843   0.71982   0.42784   1.000
    C335    C    0.51723   0.72027   0.92755   1.000
    C336    C    0.47528   0.23253   0.36806   1.000
    C337    C    0.47331   0.23326   0.86799   1.000
    C338    C    0.47528   0.73253   0.36806   1.000
    C339    C    0.47330   0.73327   0.86799   1.000
    C340    C    0.97530   0.23252   0.36806   1.000
    C341    C    0.97332   0.23328   0.86798   1.000
    C342    C    0.97529   0.73254   0.36800   1.000
    C343    C    0.97332   0.73327   0.86799   1.000
    C344    C    0.06270   0.43205   0.25369   1.000
    C345    C    0.06035   0.43329   0.75435   1.000
    C346    C    0.06270   0.93205   0.25369   1.000
    C347    C    0.06034   0.93331   0.75434   1.000
    C348    C    0.56271   0.43205   0.25369   1.000
    C349    C    0.56036   0.43330   0.75435   1.000
    C350    C    0.56271   0.93206   0.25368   1.000
    C351    C    0.56036   0.93330   0.75436   1.000
    N352    N    0.10716   0.21864   0.15415   1.000
    N353    N    0.10511   0.21941   0.65468   1.000
    N354    N    0.10717   0.71864   0.15416   1.000
    N355    N    0.10510   0.71942   0.65468   1.000
    N356    N    0.60719   0.21864   0.15415   1.000
    N357    N    0.60511   0.21942   0.65467   1.000
    N358    N    0.60718   0.71864   0.15415   1.000
    N359    N    0.60512   0.71942   0.65468   1.000
    N360    N    0.39489   0.28057   0.34529   1.000
    N361    N    0.39284   0.28132   0.84582   1.000
    N362    N    0.39490   0.78057   0.34529   1.000
    N363    N    0.39284   0.78133   0.84582   1.000
    N364    N    0.89491   0.28057   0.34529   1.000
    N365    N    0.89285   0.28133   0.84582   1.000
    N366    N    0.89491   0.78057   0.34529   1.000
    N367    N    0.89286   0.78133   0.84582   1.000
    O368    O    0.17303   0.14167   0.32169   1.000
    O369    O    0.17053   0.14235   0.82226   1.000
    O370    O    0.17303   0.64168   0.32169   1.000
    O371    O    0.17052   0.64237   0.82226   1.000
    O372    O    0.67304   0.14167   0.32169   1.000
    O373    O    0.67053   0.14236   0.82220   1.000
    O374    O    0.67304   0.64168   0.32160   1.000
    O375    O    0.67054   0.64237   0.82220   1.000
    O376    O    0.27758   0.18082   0.35756   1.000
    O377    O    0.27432   0.18237   0.85803   1.000
    O378    O    0.27758   0.68083   0.35756   1.000
    O379    O    0.27431   0.68238   0.85803   1.000
    O380    O    0.77759   0.18082   0.35756   1.000
    O381    O    0.77433   0.18238   0.85803   1.000
    O382    O    0.77759   0.68083   0.35756   1.000
    O383    O    0.77433   0.68238   0.85803   1.000
    O384    O    0.29521   0.14505   0.22414   1.000
    O385    O    0.29291   0.14645   0.72480   1.000
    O386    O    0.29522   0.64505   0.22414   1.000
    O387    O    0.29289   0.64645   0.72488   1.000
    O388    O    0.79523   0.14505   0.22414   1.000
    O389    O    0.79291   0.14645   0.72488   1.000
    O390    O    0.79523   0.64506   0.22414   1.000
    O391    O    0.79292   0.64645   0.72488   1.000
    O392    O    0.40005   0.18508   0.25890   1.000
    O393    O    0.39790   0.18610   0.75988   1.000
    O394    O    0.40005   0.68509   0.25890   1.000
    O395    O    0.39788   0.68611   0.75988   1.000
    O396    O    0.90007   0.18508   0.25890   1.000
    O397    O    0.89790   0.18610   0.75988   1.000
    O398    O    0.90007   0.68509   0.25890   1.000
    O399    O    0.89791   0.68611   0.75988   1.000
    O400    O    0.32947   0.35761   0.17772   1.000
    O401    O    0.32698   0.35830   0.67829   1.000
    O402    O    0.32947   0.85761   0.17772   1.000
    O403    O    0.32697   0.85832   0.67829   1.000
    O404    O    0.82949   0.35761   0.17772   1.000
    O405    O    0.82699   0.35831   0.67829   1.000
    O406    O    0.82949   0.85762   0.17772   1.000
    O407    O    0.82699   0.85831   0.67829   1.000
    O408    O    0.22568   0.31759   0.14194   1.000
    O409    O    0.22244   0.31914   0.64242   1.000
    O410    O    0.22568   0.81760   0.14194   1.000
    O411    O    0.22243   0.81915   0.64242   1.000
    O412    O    0.72570   0.31759   0.14194   1.000
    O413    O    0.72245   0.31914   0.64242   1.000
    O414    O    0.72569   0.81760   0.14194   1.000
    O415    O    0.72245   0.81915   0.64242   1.000
    O416    O    0.20708   0.35352   0.27509   1.000
    O417    O    0.20479   0.35492   0.77584   1.000
    O418    O    0.20709   0.85352   0.27509   1.000
    O419    O    0.20478   0.85493   0.77580   1.000
    O420    O    0.70710   0.35352   0.27509   1.000
    O421    O    0.70480   0.35492   0.77580   1.000
    O422    O    0.70710   0.85352   0.27500   1.000
    O423    O    0.70480   0.85492   0.77584   1.000
    O424    O    0.10209   0.31386   0.24000   1.000
    O425    O    0.09995   0.31489   0.74107   1.000
    O426    O    0.10210   0.81387   0.24009   1.000
    O427    O    0.09995   0.81490   0.74107   1.000
    O428    O    0.60211   0.31386   0.24009   1.000
    O429    O    0.59996   0.31489   0.74107   1.000
    O430    O    0.60210   0.81387   0.24008   1.000
    O431    O    0.59997   0.81490   0.74107   1.000
loop_
    _geom_bond_atom_site_label_1
    _geom_bond_atom_site_label_2
    _geom_bond_distance
    _geom_bond_site_symmetry_2
    _ccdc_geom_bond_type
    C274   H130      1.08943      .   S
    C274   C258      1.40474      .   S
    C274   C161      1.39255  1_564   S
    C278   H134      1.08942      .   S
    C278   C262      1.40477      .   S
    C278   C165      1.39256  1_564   S
    C272   H128      1.08941      .   S
    C272   C256      1.40474      .   S
    C272   C163      1.39277  1_554   S
    C276   H132      1.08941      .   S
    C276   C260      1.40475      .   S
    C276   C167      1.39277  1_554   S
    H40    C208      1.08833      .   S
    H44    C212      1.08803      .   S
    H46    C214      1.08803      .   S
    H42    C210      1.08812      .   S
    C222   C214      1.40656      .   S
    C222   C226      1.40556      .   S
    C222   C323      1.48488  1_554   S
    C220   C212      1.40656      .   S
    C220   C224      1.40557      .   S
    C220   C321      1.48488  1_554   S
    C216   C208      1.40657      .   S
    C216   C228      1.40542  1_455   S
    C216   C325      1.48467  1_454   S
    C218   C210      1.40658      .   S
    C218   C230      1.40555  1_455   S
    C218   C327      1.48447  1_454   S
    C264   C256      1.40329      .   S
    C264   H112      1.08967      .   S
    C264   C171      1.39277  1_554   S
    C266   C258      1.40331      .   S
    C266   H114      1.08971      .   S
    C266   C169      1.39256  1_564   S
    C268   C260      1.40329      .   S
    C268   H116      1.08916      .   S
    C268   C175      1.39276  1_554   S
    C270   C262      1.40331      .   S
    C270   H118      1.08961      .   S
    C270   C173      1.39255  1_564   S
    H76    C228      1.08731      .   S
    H78    C230      1.08730      .   S
    H74    C226      1.08731      .   S
    H72    C224      1.08730      .   S
    C212   C204      1.38698      .   S
    C214   C206      1.38564      .   S
    C210   C202      1.38544      .   S
    C208   C200      1.38543      .   S
    C256   C248      1.50527      .   S
    C260   C252      1.50525      .   S
    C262   C254      1.50536      .   S
    C258   C250      1.50520      .   S
    C228   C232      1.38845  1_655   S
    C224   C236      1.38868      .   S
    C226   C238      1.38873      .   S
    C230   C234      1.38847  1_655   S
    C206   H38       1.08966      .   S
    C206   N358      1.35113      .   S
    C202   H34       1.08968      .   S
    C202   N354      1.35142      .   S
    C200   H32       1.08966      .   S
    C200   N352      1.35129      .   S
    C204   H36       1.08946      .   S
    C204   N356      1.34987      .   S
    C232   N352      1.34906      .   S
    C232   H56       1.08871  1_455   S
    C238   N358      1.34906      .   S
    C238   H62       1.08860      .   S
    C236   N356      1.34907      .   S
    C236   H60       1.08859      .   S
    C234   N354      1.34908      .   S
    C234   H58       1.08867  1_455   S
    C250   O410      1.26871      .   S
    C250   O402      1.27920      .   S
    C248   O408      1.26873      .   S
    C248   O400      1.27916      .   S
    C252   O412      1.26873      .   S
    C252   O404      1.27918      .   S
    C254   O414      1.26873      .   S
    C254   O406      1.27910      .   S
    O410   Zn2       2.14392      .   S
    O412   Zn4       2.14393      .   S
    O408   Zn0       2.14381      .   S
    O414   Zn6       2.14383      .   S
    N352   Zn0       2.06591      .   S
    N356   Zn4       2.06605      .   S
    N358   Zn6       2.06591      .   S
    N354   Zn2       2.06593      .   S
    O400   Zn8       2.07357      .   S
    O404   Zn12      2.07356      .   S
    O402   Zn10      2.07356      .   S
    O406   Zn14      2.07358      .   S
    H24    C192      1.08904      .   S
    H26    C194      1.08906      .   S
    H28    C196      1.08902      .   S
    H30    C198      1.08879      .   S
    H84    C292      1.08903      .   S
    H86    C294      1.08833      .   S
    H82    C290      1.08833      .   S
    H80    C288      1.08812      .   S
    O390   Zn6       2.06590      .   S
    O390   C182      1.27455      .   S
    O388   Zn4       2.06596      .   S
    O388   C180      1.27457      .   S
    O384   Zn0       2.06589      .   S
    O384   C176      1.27453      .   S
    O386   Zn2       2.06597      .   S
    O386   C178      1.27453      .   S
    Zn6    O430      2.04628      .   S
    Zn6    O374      2.07179      .   S
    Zn0    O424      2.04533      .   S
    Zn0    O368      2.07315      .   S
    Zn4    O428      2.04621      .   S
    Zn4    O372      2.07301      .   S
    Zn2    O426      2.04624      .   S
    Zn2    O370      2.07299      .   S
    C198   C292      1.39085      .   S
    C198   C246      1.40444      .   S
    C192   C290      1.39088  1_545   S
    C192   C240      1.40381      .   S
    C196   C294      1.39087  1_545   S
    C196   C244      1.40387      .   S
    C194   C288      1.39129      .   S
    C194   C242      1.40382      .   S
    C288   C348      1.40344      .   S
    C294   C346      1.40291  1_655   S
    C292   C344      1.40295  1_655   S
    C290   C350      1.40336      .   S
    O424   C280      1.27678      .   S
    O430   C286      1.27575      .   S
    O428   C284      1.27563      .   S
    O426   C282      1.27565      .   S
    C176   C240      1.50024      .   S
    C176   O392      1.27573      .   S
    C178   C242      1.50022      .   S
    C178   O394      1.27574      .   S
    C182   C246      1.50025      .   S
    C182   O398      1.27570      .   S
    C180   C244      1.50030      .   S
    C180   O396      1.27561      .   S
    C244   C184      1.40303  1_655   S
    C240   C188      1.40344      .   S
    C246   C186      1.40297  1_655   S
    C242   C190      1.40341      .   S
    C350   C286      1.50012      .   S
    C350   C302      1.40378      .   S
    C344   C280      1.50016      .   S
    C344   C296      1.40379      .   S
    C348   C284      1.50016      .   S
    C348   C300      1.40379      .   S
    C346   C282      1.50010      .   S
    C346   C298      1.40391      .   S
    C284   O420      1.27459      .   S
    C280   O416      1.27462      .   S
    C282   O418      1.27459      .   S
    C286   O422      1.27403      .   S
    O394   Zn10      2.04435      .   S
    O396   Zn12      2.04437      .   S
    O398   Zn14      2.04437      .   S
    O392   Zn8       2.04440      .   S
    C188   C302      1.39109  1_545   S
    C188   H20       1.08844      .   S
    C190   C300      1.39134      .   S
    C190   H22       1.08849      .   S
    C186   C296      1.39134      .   S
    C186   H18       1.08848      .   S
    C184   C298      1.39108  1_545   S
    C184   H16       1.08844      .   S
    C300   H92       1.08908      .   S
    C296   H88       1.08875      .   S
    C298   H90       1.08907      .   S
    C302   H94       1.08910      .   S
    Zn10   O418      2.06667      .   S
    Zn10   N362      2.06630      .   S
    Zn10   O378      2.14608      .   S
    Zn14   O422      2.06605      .   S
    Zn14   N366      2.06632      .   S
    Zn14   O382      2.14605      .   S
    Zn12   O420      2.06668      .   S
    Zn12   N364      2.06633      .   S
    Zn12   O380      2.14611      .   S
    Zn8    O416      2.06667      .   S
    Zn8    N360      2.06637      .   S
    Zn8    O376      2.14608      .   S
    O374   C150      1.28044      .   S
    O368   C144      1.27898      .   S
    O370   C146      1.27911      .   S
    O372   C148      1.27900      .   S
    H120   C336      1.08889      .   S
    H126   C342      1.06658  1_455   S
    H124   C340      1.06775  1_455   S
    H122   C338      1.08884      .   S
    N366   C342      1.34901      .   S
    N366   C310      1.34999      .   S
    N364   C340      1.34912      .   S
    N364   C308      1.35010      .   S
    N362   C338      1.34913      .   S
    N362   C306      1.35000      .   S
    N360   C336      1.34912      .   S
    N360   C304      1.34847      .   S
    O376   C144      1.26864      .   S
    O378   C146      1.26862      .   S
    O380   C148      1.26864      .   S
    O382   C150      1.26864      .   S
    H100   C308      1.08945      .   S
    H96    C304      1.08918      .   S
    H102   C310      1.08943      .   S
    H98    C306      1.08944      .   S
    C150   C158      1.50571      .   S
    C148   C156      1.50575      .   S
    C146   C154      1.50570      .   S
    C144   C152      1.50575      .   S
    C342   C330      1.38905  1_655   S
    C338   C334      1.38888      .   S
    C340   C328      1.38869  1_655   S
    C336   C332      1.38874      .   S
    C304   C312      1.38849      .   S
    C308   C316      1.38669      .   S
    C310   C318      1.38685      .   S
    C306   C314      1.38686      .   S
    H50    C162      1.08967      .   S
    H48    C160      1.08891      .   S
    H54    C166      1.08961      .   S
    H52    C164      1.08889      .   S
    C330   H138      1.08741      .   S
    C330   C326      1.40637  1_455   S
    C332   H140      1.08740      .   S
    C332   C320      1.40586      .   S
    C334   H142      1.08740      .   S
    C334   C322      1.40580      .   S
    C328   H136      1.08739      .   S
    C328   C324      1.40574  1_455   S
    C158   C166      1.40345      .   S
    C158   C174      1.40325      .   S
    C152   C160      1.40359      .   S
    C152   C168      1.40470      .   S
    C156   C164      1.40358      .   S
    C156   C172      1.40469      .   S
    C154   C162      1.40345      .   S
    C154   C170      1.40464      .   S
    C316   C324      1.40649      .   S
    C316   H108      1.08825      .   S
    C312   C320      1.40646      .   S
    C312   H104      1.08688      .   S
    C314   C322      1.40647      .   S
    C314   H106      1.08816      .   S
    C318   C326      1.40649      .   S
    C318   H110      1.08817      .   S
    C164   C279      1.39328  1_545   S
    C160   C275      1.39219  1_545   S
    C166   C277      1.39298      .   S
    C162   C273      1.39285      .   S
    C320   C221      1.48505      .   S
    C322   C223      1.48506      .   S
    C324   C217      1.48485  1_655   S
    C326   C219      1.48485  1_655   S
    H68    C172      1.08947      .   S
    H64    C168      1.08944      .   S
    H66    C170      1.08945      .   S
    H70    C174      1.08972      .   S
    C174   C269      1.39405      .   S
    C170   C265      1.39284      .   S
    C168   C267      1.39271  1_545   S
    C172   C271      1.39274  1_545   S
    C275   H131      1.08921      .   S
    C275   C259      1.40622      .   S
    C279   H135      1.08944      .   S
    C279   C263      1.40487      .   S
    C273   H129      1.08957      .   S
    C273   C257      1.40481      .   S
    C277   H133      1.08960      .   S
    C277   C261      1.39973      .   S
    H43    C211      1.08957      .   S
    H41    C209      1.08811      .   S
    H45    C213      1.08814      .   S
    H47    C215      1.08818      .   S
    C221   C213      1.40649      .   S
    C221   C225      1.40596      .   S
    C223   C215      1.40648      .   S
    C223   C227      1.40581      .   S
    C217   C209      1.40646      .   S
    C217   C229      1.40559  1_455   S
    C219   C211      1.40646      .   S
    C219   C231      1.40570  1_455   S
    C267   C259      1.40342      .   S
    C267   H115      1.08957      .   S
    C269   C261      1.40441      .   S
    C269   H117      1.08960      .   S
    C265   C257      1.40342      .   S
    C265   H113      1.08967      .   S
    C271   C263      1.40341      .   S
    C271   H119      1.08955      .   S
    H79    C231      1.08740      .   S
    H77    C229      1.08740      .   S
    H75    C227      1.08740      .   S
    H73    C225      1.08739      .   S
    C213   C205      1.38680      .   S
    C209   C201      1.38682      .   S
    C215   C207      1.38686      .   S
    C211   C203      1.38687      .   S
    C261   C253      1.50967      .   S
    C257   C249      1.50568      .   S
    C263   C255      1.50560      .   S
    C259   C251      1.50561      .   S
    C225   C237      1.38884      .   S
    C227   C239      1.38889      .   S
    C229   C233      1.38865  1_655   S
    C231   C235      1.38866  1_655   S
    C201   H33       1.08926      .   S
    C201   N353      1.35012      .   S
    C205   H37       1.08943      .   S
    C205   N357      1.34996      .   S
    C203   H35       1.08942      .   S
    C203   N355      1.35005      .   S
    C207   H39       1.08942      .   S
    C207   N359      1.35003      .   S
    C239   N359      1.34911      .   S
    C239   H63       1.08885      .   S
    C235   N355      1.34912      .   S
    C235   H59       1.08869  1_455   S
    C233   N353      1.34911      .   S
    C233   H57       1.08880  1_455   S
    C237   N357      1.34910      .   S
    C237   H61       1.08882      .   S
    C251   O411      1.26860      .   S
    C251   O403      1.27916      .   S
    C255   O415      1.26862      .   S
    C255   O407      1.27916      .   S
    C253   O413      1.26860      .   S
    C253   O405      1.27919      .   S
    C249   O409      1.26862      .   S
    C249   O401      1.27910      .   S
    O409   Zn1       2.14609      .   S
    O415   Zn7       2.14612      .   S
    O413   Zn5       2.14615      .   S
    O411   Zn3       2.14619      .   S
    N357   Zn5       2.06651      .   S
    N355   Zn3       2.06637      .   S
    N359   Zn7       2.06642      .   S
    N353   Zn1       2.06639      .   S
    O405   Zn13      2.07304      .   S
    O407   Zn15      2.07304      .   S
    O403   Zn11      2.07201      .   S
    O401   Zn9       2.07302      .   S
    H27    C195      1.08909      .   S
    H29    C197      1.08910      .   S
    H31    C199      1.08908      .   S
    H25    C193      1.08904      .   S
    H85    C293      1.08948      .   S
    H87    C295      1.08830      .   S
    H83    C291      1.08847      .   S
    H81    C289      1.08835      .   S
    O385   Zn1       2.06730      .   S
    O385   C177      1.27511      .   S
    O391   Zn7       2.06675      .   S
    O391   C183      1.27458      .   S
    O389   Zn5       2.06675      .   S
    O389   C181      1.27449      .   S
    O387   Zn3       2.06675      .   S
    O387   C179      1.27460      .   S
    Zn1    O425      2.04416      .   S
    Zn1    O369      2.07362      .   S
    Zn7    O431      2.04416      .   S
    Zn7    O375      2.07273      .   S
    Zn5    O429      2.04414      .   S
    Zn5    O373      2.07271      .   S
    Zn3    O427      2.04418      .   S
    Zn3    O371      2.07359      .   S
    C199   C293      1.39133      .   S
    C199   C247      1.40388      .   S
    C197   C295      1.39113  1_545   S
    C197   C245      1.40388      .   S
    C195   C289      1.39133      .   S
    C195   C243      1.40390      .   S
    C193   C291      1.39104  1_545   S
    C193   C241      1.40394      .   S
    C295   C347      1.40302  1_655   S
    C293   C345      1.40301  1_655   S
    C291   C351      1.40343      .   S
    C289   C349      1.40345      .   S
    O429   C285      1.27581      .   S
    O431   C287      1.27574      .   S
    O427   C283      1.27569      .   S
    O425   C281      1.27583      .   S
    C181   C245      1.50000      .   S
    C181   O397      1.27585      .   S
    C183   C247      1.50012      .   S
    C183   O399      1.27568      .   S
    C179   C243      1.50015      .   S
    C179   O395      1.27567      .   S
    C177   C241      1.50011      .   S
    C177   O393      1.27563      .   S
    C241   C189      1.40303      .   S
    C243   C191      1.40336      .   S
    C247   C187      1.40293  1_655   S
    C245   C185      1.40288  1_655   S
    C347   C283      1.50025      .   S
    C347   C299      1.40393      .   S
    C349   C285      1.50025      .   S
    C349   C301      1.40379      .   S
    C345   C281      1.50023      .   S
    C345   C297      1.40380      .   S
    C351   C287      1.50028      .   S
    C351   C303      1.40378      .   S
    C287   O423      1.27456      .   S
    C281   O417      1.27452      .   S
    C283   O419      1.27432      .   S
    C285   O421      1.27428      .   S
    O393   Zn9       2.04627      .   S
    O395   Zn11      2.04541      .   S
    O397   Zn13      2.04626      .   S
    O399   Zn15      2.04626      .   S
    C189   C303      1.39055  1_545   S
    C189   H21       1.08904      .   S
    C185   C299      1.39086  1_545   S
    C185   H17       1.08834      .   S
    C191   C301      1.39120      .   S
    C191   H23       1.08828      .   S
    C187   C297      1.39121      .   S
    C187   H19       1.08823      .   S
    C303   H95       1.08904      .   S
    C297   H89       1.08907      .   S
    C301   H93       1.08902      .   S
    C299   H91       1.08861      .   S
    Zn11   O419      2.06614      .   S
    Zn11   N363      2.06705      .   S
    Zn11   O379      2.14462      .   S
    Zn9    O417      2.06593      .   S
    Zn9    N361      2.06589      .   S
    Zn9    O377      2.14389      .   S
    Zn13   O421      2.06567      .   S
    Zn13   N365      2.06585      .   S
    Zn13   O381      2.14390      .   S
    Zn15   O423      2.06591      .   S
    Zn15   N367      2.06584      .   S
    Zn15   O383      2.14390      .   S
    O375   C151      1.28001      .   S
    O373   C149      1.28011      .   S
    O371   C147      1.27906      .   S
    O369   C145      1.27908      .   S
    H123   C339      1.08931      .   S
    H125   C341      1.07805  1_455   S
    H127   C343      1.07810  1_455   S
    H121   C337      1.08859      .   S
    N365   C341      1.34906      .   S
    N365   C309      1.34991      .   S
    N363   C339      1.34906      .   S
    N363   C307      1.35003      .   S
    N367   C343      1.34907      .   S
    N367   C311      1.34996      .   S
    N361   C337      1.34907      .   S
    N361   C305      1.34989      .   S
    O383   C151      1.26873      .   S
    O377   C145      1.26871      .   S
    O379   C147      1.26872      .   S
    O381   C149      1.26871      .   S
    H101   C309      1.08969      .   S
    H99    C307      1.08949      .   S
    H97    C305      1.08945      .   S
    H103   C311      1.08947      .   S
    C151   C159      1.50524      .   S
    C147   C155      1.50528      .   S
    C145   C153      1.50493      .   S
    C149   C157      1.50522      .   S
    C341   C329      1.38856  1_655   S
    C337   C333      1.38876      .   S
    C339   C335      1.38873      .   S
    C343   C331      1.38852  1_655   S
    C305   C313      1.38608      .   S
    C307   C315      1.38683      .   S
    C309   C317      1.38684      .   S
    C311   C319      1.38683      .   S
    H55    C167      1.08966      .   S
    H53    C165      1.08961      .   S
    H51    C163      1.08965      .   S
    H49    C161      1.08971      .   S
    C329   H137      1.08731      .   S
    C329   C325      1.40543  1_455   S
    C335   H143      1.08730      .   S
    C335   C323      1.40554      .   S
    C333   H141      1.08732      .   S
    C333   C321      1.40556      .   S
    C331   H139      1.08731      .   S
    C331   C327      1.40551  1_455   S
    C153   C161      1.40321      .   S
    C153   C169      1.40525      .   S
    C155   C163      1.40329      .   S
    C155   C171      1.40475      .   S
    C157   C165      1.40330      .   S
    C157   C173      1.40477      .   S
    C159   C167      1.40328      .   S
    C159   C175      1.40474      .   S
    C313   C321      1.40666      .   S
    C313   H105      1.08889      .   S
    C319   C327      1.40659      .   S
    C319   H111      1.08812      .   S
    C317   C325      1.40659      .   S
    C317   H109      1.08822      .   S
    C315   C323      1.40657      .   S
    C315   H107      1.08800      .   S
    H67    C171      1.08919      .   S
    H71    C175      1.08923      .   S
    H65    C169      1.08941      .   S
    H69    C173      1.08942      .   S
    Zn0    Zn8       2.91815      .   S
    Zn1    Zn9       2.91806      .   S
    Zn2    Zn10      2.91806      .   S
    Zn3    Zn11      2.91736      .   S
    Zn4    Zn12      2.91809      .   S
    Zn5    Zn13      2.91815      .   S
    Zn6    Zn14      2.91814      .   S
    Zn7    Zn15      2.91810      .   S
