# CIF file generated by openbabel 2.4.90, see http://openbabel.sf.net
data_I
_chemical_name_common 'VESTA_phase_1'
_cell_length_a 18.604
_cell_length_b 19.052
_cell_length_c 19.059
_cell_angle_alpha 70.331
_cell_angle_beta 70.885
_cell_angle_gamma 108.967
_space_group_name_H-M_alt 'P 1'
_space_group_name_Hall 'P 1'
loop_
    _symmetry_equiv_pos_as_xyz
    x,y,z
loop_
    _atom_site_label
    _atom_site_type_symbol
    _atom_site_fract_x
    _atom_site_fract_y
    _atom_site_fract_z
    _atom_site_occupancy
    Zn0     Zn   0.44450   0.50911   0.06955   1.000
    Zn1     Zn   0.51392   0.06924   0.42196   1.000
    Zn2     Zn   0.93594   0.42207   0.50805   1.000
    Zn3     Zn   0.98605   0.42192   0.06920   1.000
    Zn4     Zn   0.56414   0.50791   0.42211   1.000
    Zn5     Zn   0.05530   0.06948   0.50919   1.000
    Zn6     Zn   0.55548   0.49089   0.93045   1.000
    Zn7     Zn   0.48605   0.93075   0.57805   1.000
    Zn8     Zn   0.06404   0.57793   0.49195   1.000
    Zn9     Zn   0.01393   0.57808   0.93081   1.000
    Zn10    Zn   0.43583   0.49208   0.57790   1.000
    Zn11    Zn   0.94468   0.93052   0.49081   1.000
    H12     H    0.50295   0.37802   0.27152   1.000
    H13     H    0.36414   0.23465   0.00852   1.000
    H14     H    0.42035   0.70090   0.30830   1.000
    H15     H    0.18666   0.59354   0.25268   1.000
    H16     H    0.15956   0.51326   0.17481   1.000
    H17     H    0.27436   0.48054   0.10463   1.000
    H18     H    0.52354   0.65627   0.24377   1.000
    H19     H    0.28201   0.66148   0.30171   1.000
    H20     H    0.49302   0.57569   0.16823   1.000
    H21     H    0.77534   0.27146   0.35025   1.000
    H22     H    0.37174   0.00938   0.75750   1.000
    H23     H    0.72417   0.30303   0.99350   1.000
    H24     H    0.43640   0.25075   0.15823   1.000
    H25     H    0.33316   0.17502   0.31601   1.000
    H26     H    0.37897   0.10573   0.41743   1.000
    H27     H    0.76397   0.23925   0.10125   1.000
    H28     H    0.57979   0.29791   0.04064   1.000
    H29     H    0.65958   0.16608   0.25704   1.000
    H30     H    0.12608   0.35002   0.37686   1.000
    H31     H    0.13149   0.75661   0.23529   1.000
    H32     H    0.71709   0.99350   0.70317   1.000
    H33     H    0.59329   0.15742   0.59255   1.000
    H34     H    0.64804   0.31500   0.51025   1.000
    H35     H    0.79594   0.41681   0.47708   1.000
    H36     H    0.86542   0.10145   0.65777   1.000
    H37     H    0.61922   0.04020   0.66243   1.000
    H38     H    0.91700   0.25707   0.57504   1.000
    H39     H    0.72430   0.35036   0.27167   1.000
    H40     H    0.12803   0.75714   0.00936   1.000
    H41     H    0.77568   0.99365   0.30300   1.000
    H42     H    0.06322   0.15791   0.25108   1.000
    H43     H    0.16651   0.31557   0.17515   1.000
    H44     H    0.12088   0.41711   0.10563   1.000
    H45     H    0.73608   0.10151   0.23921   1.000
    H46     H    0.91992   0.04055   0.29827   1.000
    H47     H    0.84049   0.25718   0.16584   1.000
    H48     H    0.37464   0.37687   0.35010   1.000
    H49     H    0.36853   0.23554   0.75690   1.000
    H50     H    0.78348   0.70353   0.99332   1.000
    H51     H    0.90720   0.59263   0.15703   1.000
    H52     H    0.85219   0.50989   0.31467   1.000
    H53     H    0.70410   0.47660   0.41667   1.000
    H54     H    0.63482   0.65765   0.10145   1.000
    H55     H    0.88146   0.66286   0.03988   1.000
    H56     H    0.58308   0.57472   0.25709   1.000
    H57     H    0.99649   0.27148   0.37830   1.000
    H58     H    0.13626   0.00909   0.23390   1.000
    H59     H    0.07932   0.30830   0.70091   1.000
    H60     H    0.31296   0.25202   0.59350   1.000
    H61     H    0.34001   0.17393   0.51339   1.000
    H62     H    0.22530   0.10403   0.48070   1.000
    H63     H    0.97614   0.24384   0.65651   1.000
    H64     H    0.21766   0.30147   0.66133   1.000
    H65     H    0.00675   0.16824   0.57590   1.000
    H66     H    0.49703   0.62197   0.72848   1.000
    H67     H    0.63584   0.76535   0.99148   1.000
    H68     H    0.57962   0.29909   0.69170   1.000
    H69     H    0.81332   0.40645   0.74732   1.000
    H70     H    0.84042   0.48673   0.82519   1.000
    H71     H    0.72562   0.51945   0.89537   1.000
    H72     H    0.47644   0.34373   0.75623   1.000
    H73     H    0.71796   0.33851   0.69829   1.000
    H74     H    0.50696   0.42431   0.83177   1.000
    H75     H    0.22464   0.72854   0.64976   1.000
    H76     H    0.62823   0.99061   0.24244   1.000
    H77     H    0.27580   0.69696   0.00650   1.000
    H78     H    0.56358   0.74924   0.84178   1.000
    H79     H    0.66682   0.82497   0.68400   1.000
    H80     H    0.62101   0.89427   0.58258   1.000
    H81     H    0.23601   0.76074   0.89875   1.000
    H82     H    0.42019   0.70209   0.95937   1.000
    H83     H    0.34039   0.83392   0.74297   1.000
    H84     H    0.87390   0.64998   0.62314   1.000
    H85     H    0.86849   0.24340   0.76471   1.000
    H86     H    0.28288   0.00650   0.29684   1.000
    H87     H    0.40669   0.84258   0.40746   1.000
    H88     H    0.35194   0.68500   0.48975   1.000
    H89     H    0.20404   0.58319   0.52292   1.000
    H90     H    0.13455   0.89855   0.34223   1.000
    H91     H    0.38075   0.95980   0.33757   1.000
    H92     H    0.08298   0.74293   0.42496   1.000
    H93     H    0.27568   0.64964   0.72830   1.000
    H94     H    0.87195   0.24286   0.99064   1.000
    H95     H    0.22429   0.00635   0.69671   1.000
    H96     H    0.93676   0.84208   0.74893   1.000
    H97     H    0.83347   0.68443   0.82485   1.000
    H98     H    0.87910   0.58288   0.89438   1.000
    H99     H    0.26390   0.89849   0.76079   1.000
    H100    H    0.08005   0.95945   0.70173   1.000
    H101    H    0.15949   0.74282   0.83416   1.000
    H102    H    0.62534   0.62313   0.64982   1.000
    H103    H    0.63144   0.76446   0.24311   1.000
    H104    H    0.21650   0.29647   0.00668   1.000
    H105    H    0.09277   0.40736   0.84298   1.000
    H106    H    0.14779   0.49010   0.68534   1.000
    H107    H    0.29588   0.52340   0.58334   1.000
    H108    H    0.36515   0.34234   0.89856   1.000
    H109    H    0.11851   0.33713   0.96013   1.000
    H110    H    0.41689   0.42527   0.74291   1.000
    H111    H    0.00349   0.72852   0.62170   1.000
    H112    H    0.86372   0.99091   0.76606   1.000
    H113    H    0.92066   0.69169   0.29900   1.000
    H114    H    0.68701   0.74797   0.40650   1.000
    H115    H    0.65997   0.82606   0.48662   1.000
    H116    H    0.77467   0.89597   0.51928   1.000
    H117    H    0.02383   0.75615   0.34349   1.000
    H118    H    0.78231   0.69853   0.33860   1.000
    H119    H    0.99323   0.83176   0.42410   1.000
    H120    H    0.73313   0.48325   0.03429   1.000
    H121    H    0.57330   0.32408   0.35160   1.000
    H122    H    0.76685   0.03429   0.48336   1.000
    H123    H    0.92608   0.35150   0.32414   1.000
    H124    H    0.24992   0.48255   0.48260   1.000
    H125    H    0.25053   0.32330   0.32330   1.000
    H126    H    0.26685   0.51675   0.96571   1.000
    H127    H    0.42668   0.67591   0.64833   1.000
    H128    H    0.23313   0.96571   0.51665   1.000
    H129    H    0.07390   0.64850   0.67586   1.000
    H130    H    0.75006   0.51745   0.51734   1.000
    H131    H    0.74944   0.67670   0.67670   1.000
    H132    H    0.24996   0.24065   0.24068   1.000
    H133    H    0.25025   0.08169   0.08080   1.000
    H134    H    0.49042   0.24010   0.51994   1.000
    H135    H    0.32939   0.08266   0.83750   1.000
    H136    H    0.00947   0.51971   0.24023   1.000
    H137    H    0.17055   0.83712   0.08242   1.000
    H138    H    0.75001   0.75934   0.75932   1.000
    H139    H    0.74973   0.91831   0.91921   1.000
    H140    H    0.50955   0.75990   0.48007   1.000
    H141    H    0.67059   0.91734   0.16200   1.000
    H142    H    0.99052   0.48029   0.75977   1.000
    H143    H    0.82943   0.16289   0.91758   1.000
    C144    C    0.56724   0.45649   0.09925   1.000
    C145    C    0.61229   0.43122   0.14782   1.000
    C146    C    0.56851   0.38848   0.23750   1.000
    C147    C    0.37857   0.34083   0.07574   1.000
    C148    C    0.31242   0.24788   0.11929   1.000
    C149    C    0.31346   0.20219   0.07496   1.000
    C150    C    0.40605   0.66647   0.27482   1.000
    C151    C    0.23374   0.57651   0.22242   1.000
    C152    C    0.21878   0.53235   0.17983   1.000
    C153    C    0.28241   0.51297   0.14114   1.000
    C154    C    0.46523   0.64162   0.23724   1.000
    C155    C    0.31141   0.60038   0.22730   1.000
    C156    C    0.32996   0.64557   0.27067   1.000
    C157    C    0.37253   0.57685   0.18785   1.000
    C158    C    0.44915   0.59745   0.19470   1.000
    C159    C    0.66658   0.09942   0.44445   1.000
    C160    C    0.76029   0.14783   0.42128   1.000
    C161    C    0.80664   0.23742   0.37398   1.000
    C162    C    0.45394   0.07536   0.58458   1.000
    C163    C    0.43109   0.11931   0.63386   1.000
    C164    C    0.38749   0.07571   0.72354   1.000
    C165    C    0.67710   0.27056   0.06131   1.000
    C166    C    0.45380   0.22088   0.20483   1.000
    C167    C    0.39719   0.17950   0.29141   1.000
    C168    C    0.42277   0.14124   0.34862   1.000
    C169    C    0.69936   0.23344   0.12292   1.000
    C170    C    0.53617   0.22515   0.17535   1.000
    C171    C    0.59713   0.26719   0.08700   1.000
    C172    C    0.55844   0.18609   0.23751   1.000
    C173    C    0.64175   0.19228   0.20936   1.000
    C174    C    0.11112   0.44415   0.45572   1.000
    C175    C    0.18161   0.42073   0.43042   1.000
    C176    C    0.18091   0.37352   0.38761   1.000
    C177    C    0.03835   0.58385   0.34094   1.000
    C178    C    0.06540   0.63328   0.24803   1.000
    C179    C    0.11284   0.72287   0.20264   1.000
    C180    C    0.73791   0.06125   0.66780   1.000
    C181    C    0.65763   0.20415   0.57520   1.000
    C182    C    0.68769   0.29063   0.52990   1.000
    C183    C    0.77088   0.34804   0.51033   1.000
    C184    C    0.82222   0.12298   0.64255   1.000
    C185    C    0.71079   0.17494   0.59984   1.000
    C186    C    0.68329   0.08669   0.64619   1.000
    C187    C    0.79568   0.23727   0.57597   1.000
    C188    C    0.85116   0.20933   0.59719   1.000
    C189    C    0.83331   0.44448   0.09954   1.000
    C190    C    0.73952   0.42128   0.14794   1.000
    C191    C    0.69300   0.37398   0.23757   1.000
    C192    C    0.04593   0.58428   0.07547   1.000
    C193    C    0.06875   0.63353   0.11937   1.000
    C194    C    0.11236   0.72316   0.07567   1.000
    C195    C    0.82279   0.06141   0.27072   1.000
    C196    C    0.04591   0.20457   0.22100   1.000
    C197    C    0.10256   0.29108   0.17958   1.000
    C198    C    0.07706   0.34836   0.14121   1.000
    C199    C    0.80062   0.12308   0.23345   1.000
    C200    C    0.96365   0.17523   0.22524   1.000
    C201    C    0.90265   0.08696   0.26744   1.000
    C202    C    0.94145   0.23746   0.18610   1.000
    C203    C    0.85826   0.20945   0.19215   1.000
    C204    C    0.38896   0.45570   0.44433   1.000
    C205    C    0.31863   0.43036   0.42088   1.000
    C206    C    0.31967   0.38758   0.37365   1.000
    C207    C    0.46163   0.34097   0.58402   1.000
    C208    C    0.43452   0.24806   0.63350   1.000
    C209    C    0.38712   0.20280   0.72310   1.000
    C210    C    0.76257   0.66800   0.06108   1.000
    C211    C    0.84276   0.57516   0.20385   1.000
    C212    C    0.81256   0.52970   0.29035   1.000
    C213    C    0.72924   0.50997   0.34787   1.000
    C214    C    0.67808   0.64250   0.12291   1.000
    C215    C    0.78960   0.59989   0.17472   1.000
    C216    C    0.81724   0.64643   0.08640   1.000
    C217    C    0.70455   0.57581   0.23715   1.000
    C218    C    0.64904   0.59702   0.20928   1.000
    C219    C    0.93258   0.09927   0.45670   1.000
    C220    C    0.88745   0.14779   0.43138   1.000
    C221    C    0.93103   0.23742   0.38871   1.000
    C222    C    0.12149   0.07581   0.34063   1.000
    C223    C    0.18774   0.11951   0.24750   1.000
    C224    C    0.18684   0.07546   0.20161   1.000
    C225    C    0.09364   0.27476   0.66650   1.000
    C226    C    0.26590   0.22186   0.57653   1.000
    C227    C    0.28084   0.17916   0.53244   1.000
    C228    C    0.21726   0.14061   0.51311   1.000
    C229    C    0.03446   0.23722   0.64178   1.000
    C230    C    0.18828   0.22704   0.60037   1.000
    C231    C    0.16972   0.27045   0.64552   1.000
    C232    C    0.12719   0.18762   0.57695   1.000
    C233    C    0.05059   0.19473   0.59760   1.000
    C234    C    0.43274   0.54351   0.90075   1.000
    C235    C    0.38769   0.56878   0.85218   1.000
    C236    C    0.43147   0.61152   0.76250   1.000
    C237    C    0.62141   0.65917   0.92426   1.000
    C238    C    0.68756   0.75211   0.88071   1.000
    C239    C    0.68652   0.79781   0.92500   1.000
    C240    C    0.59393   0.33352   0.72518   1.000
    C241    C    0.76624   0.42348   0.77758   1.000
    C242    C    0.78120   0.46764   0.82017   1.000
    C243    C    0.71757   0.48702   0.85880   1.000
    C244    C    0.53474   0.35837   0.76276   1.000
    C245    C    0.68856   0.39962   0.77266   1.000
    C246    C    0.67002   0.35443   0.72933   1.000
    C247    C    0.62745   0.42314   0.81210   1.000
    C248    C    0.55083   0.40255   0.80521   1.000
    C249    C    0.33340   0.90058   0.55550   1.000
    C250    C    0.23969   0.85217   0.57873   1.000
    C251    C    0.19334   0.76258   0.62602   1.000
    C252    C    0.54604   0.92463   0.41543   1.000
    C253    C    0.56889   0.88068   0.36615   1.000
    C254    C    0.61249   0.92429   0.27647   1.000
    C255    C    0.32288   0.72944   0.93870   1.000
    C256    C    0.54618   0.77911   0.79518   1.000
    C257    C    0.60279   0.82050   0.70860   1.000
    C258    C    0.57720   0.85875   0.65139   1.000
    C259    C    0.30062   0.76655   0.87708   1.000
    C260    C    0.46381   0.77485   0.82466   1.000
    C261    C    0.40284   0.73280   0.91301   1.000
    C262    C    0.44154   0.81390   0.76249   1.000
    C263    C    0.35822   0.80771   0.79064   1.000
    C264    C    0.88885   0.55585   0.54428   1.000
    C265    C    0.81837   0.57927   0.56958   1.000
    C266    C    0.81907   0.62647   0.61239   1.000
    C267    C    0.96163   0.41615   0.65906   1.000
    C268    C    0.93458   0.36672   0.75190   1.000
    C269    C    0.88714   0.27714   0.79736   1.000
    C270    C    0.26207   0.93875   0.33220   1.000
    C271    C    0.34235   0.79585   0.42480   1.000
    C272    C    0.31229   0.70937   0.47005   1.000
    C273    C    0.22910   0.65196   0.48967   1.000
    C274    C    0.17776   0.87702   0.35745   1.000
    C275    C    0.28919   0.82506   0.40010   1.000
    C276    C    0.31668   0.91331   0.35381   1.000
    C277    C    0.20430   0.76273   0.42400   1.000
    C278    C    0.14882   0.79067   0.40281   1.000
    C279    C    0.16667   0.55552   0.90046   1.000
    C280    C    0.26046   0.57871   0.85207   1.000
    C281    C    0.30698   0.62602   0.76243   1.000
    C282    C    0.95405   0.41572   0.92453   1.000
    C283    C    0.93123   0.36647   0.88063   1.000
    C284    C    0.88762   0.27684   0.92433   1.000
    C285    C    0.17719   0.93859   0.72928   1.000
    C286    C    0.95407   0.79543   0.77891   1.000
    C287    C    0.89742   0.70892   0.82042   1.000
    C288    C    0.92292   0.65164   0.85880   1.000
    C289    C    0.19935   0.87692   0.76655   1.000
    C290    C    0.03632   0.82477   0.77470   1.000
    C291    C    0.09733   0.91304   0.73256   1.000
    C292    C    0.05853   0.76254   0.81390   1.000
    C293    C    0.14172   0.79055   0.80785   1.000
    C294    C    0.61102   0.54429   0.55568   1.000
    C295    C    0.68135   0.56963   0.57913   1.000
    C296    C    0.68030   0.61242   0.62635   1.000
    C297    C    0.53834   0.65902   0.41598   1.000
    C298    C    0.56546   0.75194   0.36640   1.000
    C299    C    0.61285   0.79720   0.27685   1.000
    C300    C    0.23741   0.33200   0.93893   1.000
    C301    C    0.15722   0.42483   0.79615   1.000
    C302    C    0.18741   0.47030   0.70965   1.000
    C303    C    0.27073   0.49002   0.65214   1.000
    C304    C    0.32190   0.35750   0.87700   1.000
    C305    C    0.21037   0.40010   0.82528   1.000
    C306    C    0.18274   0.35357   0.91356   1.000
    C307    C    0.29542   0.42418   0.76285   1.000
    C308    C    0.35094   0.40298   0.79072   1.000
    C309    C    0.06739   0.90072   0.54330   1.000
    C310    C    0.11252   0.85220   0.56863   1.000
    C311    C    0.06895   0.76257   0.61100   1.000
    C312    C    0.87849   0.92419   0.65937   1.000
    C313    C    0.81223   0.88049   0.75242   1.000
    C314    C    0.81313   0.92454   0.79839   1.000
    C315    C    0.90633   0.72524   0.33351   1.000
    C316    C    0.73408   0.77814   0.42347   1.000
    C317    C    0.71914   0.82083   0.46757   1.000
    C318    C    0.78272   0.85938   0.48600   1.000
    C319    C    0.96551   0.76278   0.35822   1.000
    C320    C    0.81169   0.77295   0.39963   1.000
    C321    C    0.83026   0.72954   0.35448   1.000
    C322    C    0.87279   0.81238   0.42305   1.000
    C323    C    0.94939   0.80527   0.40240   1.000
    C324    C    0.69807   0.44830   0.10300   1.000
    C325    C    0.60841   0.35901   0.28199   1.000
    C326    C    0.80177   0.10376   0.44843   1.000
    C327    C    0.89112   0.28185   0.35908   1.000
    C328    C    0.25004   0.44766   0.44777   1.000
    C329    C    0.25038   0.35825   0.35831   1.000
    C330    C    0.30191   0.55170   0.89621   1.000
    C331    C    0.39157   0.64098   0.71801   1.000
    C332    C    0.19821   0.89624   0.55158   1.000
    C333    C    0.10886   0.71815   0.64093   1.000
    C334    C    0.74994   0.55233   0.55223   1.000
    C335    C    0.74960   0.64175   0.64169   1.000
    C336    C    0.25002   0.20582   0.20567   1.000
    C337    C    0.25020   0.11657   0.11591   1.000
    C338    C    0.45516   0.20558   0.58951   1.000
    C339    C    0.36479   0.11724   0.76779   1.000
    C340    C    0.04474   0.58924   0.20564   1.000
    C341    C    0.13512   0.76743   0.11708   1.000
    C342    C    0.74995   0.79418   0.79433   1.000
    C343    C    0.74978   0.88342   0.88409   1.000
    C344    C    0.54481   0.79441   0.41050   1.000
    C345    C    0.63519   0.88276   0.23222   1.000
    C346    C    0.95524   0.41076   0.79436   1.000
    C347    C    0.86485   0.23257   0.88292   1.000
    N348    N    0.35677   0.53422   0.14410   1.000
    N349    N    0.49987   0.14357   0.32374   1.000
    N350    N    0.82337   0.32342   0.53233   1.000
    N351    N    0.00007   0.32361   0.14345   1.000
    N352    N    0.67676   0.53206   0.32330   1.000
    N353    N    0.14296   0.14381   0.53432   1.000
    N354    N    0.64321   0.46577   0.85590   1.000
    N355    N    0.50011   0.85643   0.67627   1.000
    N356    N    0.17661   0.67658   0.46767   1.000
    N357    N    0.99991   0.67639   0.85650   1.000
    N358    N    0.32321   0.46793   0.67668   1.000
    N359    N    0.85702   0.85618   0.46568   1.000
    O360    O    0.50483   0.46849   0.13550   1.000
    O361    O    0.36136   0.38198   0.11323   1.000
    O362    O    0.59401   0.46283   0.02559   1.000
    O363    O    0.44641   0.36974   0.00000   1.000
    O364    O    0.64041   0.13553   0.39646   1.000
    O365    O    0.47421   0.11242   0.50625   1.000
    O366    O    0.61960   0.02610   0.51153   1.000
    O367    O    0.45201   0.00000   0.62525   1.000
    O368    O    0.03705   0.39643   0.46696   1.000
    O369    O    0.98014   0.50565   0.38142   1.000
    O370    O    0.13111   0.51106   0.46280   1.000
    O371    O    0.07691   0.62429   0.37052   1.000
    O372    O    0.85949   0.39647   0.13565   1.000
    O373    O    0.02549   0.50592   0.11262   1.000
    O374    O    0.88031   0.51153   0.02619   1.000
    O375    O    0.04775   0.62497   0.00000   1.000
    O376    O    0.46313   0.46690   0.39660   1.000
    O377    O    0.51995   0.38134   0.50579   1.000
    O378    O    0.36880   0.46296   0.51117   1.000
    O379    O    0.42292   0.37062   0.62439   1.000
    O380    O    0.99485   0.13552   0.46874   1.000
    O381    O    0.13850   0.11315   0.38190   1.000
    O382    O    0.90609   0.02570   0.46291   1.000
    O383    O    0.05381   0.00000   0.36952   1.000
    O384    O    0.49515   0.53150   0.86445   1.000
    O385    O    0.63862   0.61802   0.88677   1.000
    O386    O    0.40598   0.53717   0.97441   1.000
    O387    O    0.55357   0.63026   0.99417   1.000
    O388    O    0.35957   0.86447   0.60355   1.000
    O389    O    0.52576   0.88758   0.49376   1.000
    O390    O    0.38037   0.97390   0.48848   1.000
    O391    O    0.54797   0.99435   0.37476   1.000
    O392    O    0.96293   0.60357   0.53304   1.000
    O393    O    0.01985   0.49435   0.61858   1.000
    O394    O    0.86887   0.48894   0.53700   1.000
    O395    O    0.92307   0.37571   0.62948   1.000
    O396    O    0.14049   0.60353   0.86436   1.000
    O397    O    0.97449   0.49408   0.88739   1.000
    O398    O    0.11967   0.48847   0.97380   1.000
    O399    O    0.95224   0.37503   0.99416   1.000
    O400    O    0.53685   0.53309   0.60340   1.000
    O401    O    0.48002   0.61865   0.49422   1.000
    O402    O    0.63117   0.53703   0.48884   1.000
    O403    O    0.57705   0.62937   0.37562   1.000
    O404    O    0.00000   0.86447   0.53126   1.000
    O405    O    0.86148   0.88685   0.61810   1.000
    O406    O    0.09389   0.97430   0.53709   1.000
    O407    O    0.94617   0.99411   0.63048   1.000
loop_
    _geom_bond_atom_site_label_1
    _geom_bond_atom_site_label_2
    _geom_bond_distance
    _geom_bond_site_symmetry_2
    _ccdc_geom_bond_type
    O363   C147      1.34154      .   S
    O363   Zn6       2.08241  1_554   S
    O375   C192      1.36800      .   S
    O375   Zn9       1.97588  1_554   S
    H77    C255      1.08995  1_554   S
    H104   C300      1.09009  1_554   S
    H13    C149      1.08937      .   S
    H40    C194      1.08930      .   S
    O362   C144      1.27368      .   S
    O362   Zn6       2.12958  1_554   S
    O374   C189      1.27357      .   S
    O374   Zn9       2.12881  1_654   S
    H120   C324      1.07470      .   S
    H55    C216      1.08994      .   S
    H28    C171      1.09026      .   S
    C210   C216      1.37686      .   S
    C210   C214      1.41438      .   S
    C210   H50       1.09025  1_554   S
    C165   C171      1.37727      .   S
    C165   C169      1.41431      .   S
    C165   H23       1.09009  1_554   S
    Zn3    O373      2.07613  1_655   S
    Zn3    O372      2.06744      .   S
    Zn3    N351      2.08663  1_655   S
    Zn3    O398      2.12892  1_654   S
    Zn3    O399      2.07928  1_554   S
    Zn0    O361      2.07750      .   S
    Zn0    O360      2.06700      .   S
    Zn0    N348      2.08761      .   S
    Zn0    O386      2.12953  1_554   S
    Zn0    O387      2.07919  1_554   S
    C149   C337      1.39587      .   S
    C149   C148      1.40262      .   S
    C192   O373      1.27195      .   S
    C192   C193      1.50433      .   S
    C194   C341      1.39590      .   S
    C194   C193      1.40258      .   S
    C147   O361      1.27204      .   S
    C147   C148      1.50472      .   S
    H133   C337      1.09040      .   S
    H137   C341      1.09041      .   S
    C216   C215      1.41989      .   S
    C171   C170      1.41918      .   S
    C144   O360      1.27728      .   S
    C144   C145      1.50380      .   S
    C189   O372      1.27779      .   S
    C189   C190      1.50377      .   S
    H27    C169      1.08868      .   S
    H54    C214      1.08875      .   S
    C324   C145      1.40166      .   S
    C324   C190      1.40958      .   S
    H17    C153      1.08898      .   S
    H44    C198      1.08912      .   S
    C337   C224      1.39587      .   S
    C341   C179      1.39580      .   S
    C148   C336      1.39843      .   S
    C193   C340      1.39820      .   S
    C214   C218      1.38039      .   S
    C169   C173      1.38033      .   S
    C153   N348      1.33538      .   S
    C153   C152      1.40603      .   S
    C198   N351      1.33527      .   S
    C198   C197      1.40614      .   S
    N351   C202      1.37899  1_455   S
    N348   C157      1.37916      .   S
    C145   C146      1.40288      .   S
    C190   C191      1.40276      .   S
    H51    C211      1.08836      .   S
    H24    C166      1.08863      .   S
    H141   C345      1.09820      .   S
    H47    C203      1.08841      .   S
    H20    C158      1.08786      .   S
    C215   C211      1.41228      .   S
    C215   C217      1.43436      .   S
    H16    C152      1.08960      .   S
    H43    C197      1.08960      .   S
    C170   C166      1.41245      .   S
    C170   C172      1.43436      .   S
    C197   C196      1.37850      .   S
    C152   C151      1.37825      .   S
    C202   C203      1.41353      .   S
    C202   C200      1.43448      .   S
    C157   C158      1.41273      .   S
    C157   C155      1.43423      .   S
    C203   C199      1.38038      .   S
    C158   C154      1.38194      .   S
    C224   H58       1.08939      .   S
    C224   C223      1.40140      .   S
    C179   H31       1.08927      .   S
    C179   C178      1.40261      .   S
    C211   C212      1.37828      .   S
    C166   C167      1.37839      .   S
    C340   H136      1.08800      .   S
    C340   C178      1.39805      .   S
    C336   H132      1.08798      .   S
    C336   C223      1.39866      .   S
    C218   C217      1.41353      .   S
    C218   H56       1.08843      .   S
    C173   C172      1.41350      .   S
    C173   H29       1.08850      .   S
    C196   C200      1.41184  1_455   S
    C196   H42       1.08931      .   S
    C151   C155      1.41180      .   S
    C151   H15       1.08849      .   S
    C200   C201      1.41920      .   S
    C155   C156      1.41996      .   S
    C345   C254      1.39592      .   S
    C345   C299      1.39584      .   S
    C199   H45       1.08867      .   S
    C199   C195      1.41437      .   S
    C217   N352      1.37863      .   S
    C154   H18       1.08858      .   S
    C154   C150      1.41425      .   S
    C146   H12       1.08846      .   S
    C146   C325      1.39566      .   S
    C172   N349      1.37902      .   S
    C191   H39       1.08860      .   S
    C191   C325      1.39569      .   S
    H76    C254      1.08925      .   S
    H103   C299      1.08939      .   S
    C223   C222      1.50605      .   S
    C178   C177      1.50381      .   S
    C201   C195      1.37723      .   S
    C201   H46       1.09031      .   S
    C156   C150      1.37719      .   S
    C156   H19       1.09021      .   S
    C195   H41       1.09084  1_545   S
    C150   H14       1.08986      .   S
    C254   C253      1.40271      .   S
    C299   C298      1.40121      .   S
    C325   H121      1.08866      .   S
    C212   H52       1.08966      .   S
    C212   C213      1.40605      .   S
    C167   H25       1.08964      .   S
    C167   C168      1.40615      .   S
    H86    C270      1.09029  1_545   S
    H113   C315      1.09134      .   S
    N352   C213      1.33548      .   S
    N352   Zn4       2.08661      .   S
    H125   C329      1.08980      .   S
    N349   C168      1.33525      .   S
    N349   Zn1       2.08684      .   S
    H123   C327      1.08990      .   S
    C270   C276      1.37729      .   S
    C270   C274      1.41439      .   S
    C315   C321      1.37718      .   S
    C315   C319      1.41415      .   S
    H91    C276      1.09025      .   S
    H118   C321      1.09127      .   S
    C222   O383      1.34275      .   S
    C222   O381      1.27212      .   S
    C177   O371      1.27433      .   S
    C177   O369      1.27206  1_455   S
    H90    C274      1.08872      .   S
    H117   C319      1.08879  1_455   S
    C213   H53       1.08911      .   S
    C168   H26       1.08909      .   S
    H48    C206      1.08878      .   S
    H21    C161      1.08854      .   S
    C276   C275      1.41908      .   S
    C321   C320      1.41912      .   S
    C274   C278      1.38049      .   S
    C319   C323      1.38044      .   S
    C329   C206      1.39571      .   S
    C329   C176      1.39573      .   S
    C327   C161      1.39575      .   S
    C327   C221      1.39570      .   S
    C253   C344      1.39812      .   S
    C253   C252      1.50441      .   S
    C298   C344      1.39911      .   S
    C298   C297      1.50403      .   S
    O383   Zn11      2.08268  1_445   S
    O371   Zn8       2.07780      .   S
    C206   C205      1.40285      .   S
    C161   C160      1.40280      .   S
    O391   C252      1.27444      .   S
    O391   Zn1       2.07956  1_565   S
    O403   C297      1.27426      .   S
    O403   Zn4       2.07770      .   S
    H30    C176      1.08851      .   S
    H57    C221      1.08850      .   S
    O369   Zn2       2.07327      .   S
    O381   Zn5       2.07804      .   S
    C176   C175      1.40290      .   S
    C221   C220      1.40286      .   S
    O364   Zn1       2.06746      .   S
    O364   C159      1.27771      .   S
    O376   Zn4       2.06838      .   S
    O376   C204      1.27781      .   S
    C320   C322      1.43467      .   S
    C320   C316      1.41231      .   S
    C275   C277      1.43429      .   S
    C275   C271      1.41280      .   S
    C323   C322      1.41350      .   S
    C323   H119      1.08844      .   S
    C278   C277      1.41323      .   S
    C278   H92       1.08837      .   S
    H114   C316      1.08857      .   S
    H87    C271      1.08852      .   S
    C344   H140      1.08804      .   S
    C252   O389      1.27200      .   S
    C297   O401      1.27208      .   S
    C205   C204      1.50406      .   S
    C205   C328      1.39945      .   S
    C160   C159      1.50386      .   S
    C160   C326      1.39952      .   S
    Zn1    O390      2.12906  1_545   S
    Zn1    O365      2.07615      .   S
    Zn4    O402      2.13174      .   S
    Zn4    O377      2.07315      .   S
    C322   N359      1.37923      .   S
    C316   C317      1.37830      .   S
    C277   N356      1.37910      .   S
    C271   C272      1.37832      .   S
    C175   C328      1.39950      .   S
    C175   C174      1.50411      .   S
    C220   C326      1.39942      .   S
    C220   C219      1.50400      .   S
    C204   O378      1.27363      .   S
    C159   O366      1.27360      .   S
    C328   H124      1.08594      .   S
    C326   H122      1.08706      .   S
    C174   O370      1.27359      .   S
    C174   O368      1.27781      .   S
    C219   O382      1.27378      .   S
    C219   O380      1.27763      .   S
    O370   Zn8       2.13172      .   S
    O382   Zn11      2.12922  1_545   S
    N359   C318      1.33583      .   S
    N359   Zn11      2.08847      .   S
    O368   Zn2       2.06892  1_455   S
    C317   C318      1.39391      .   S
    C317   H115      1.08959      .   S
    N356   C273      1.33524      .   S
    N356   Zn8       2.08648      .   S
    O380   Zn5       2.06812  1_655   S
    C272   C273      1.40601      .   S
    C272   H88       1.08963      .   S
    H35    C183      1.08913      .   S
    H62    C228      1.08943      .   S
    C318   H116      1.10171      .   S
    O390   C249      1.27314      .   S
    O402   C294      1.27363      .   S
    C273   H89       1.08912      .   S
    Zn11   O404      1.98635  1_655   S
    Zn11   O405      2.07805      .   S
    Zn8    O392      2.06893  1_455   S
    Zn8    O393      2.07328      .   S
    O389   Zn7       2.07617      .   S
    O401   Zn10      2.07316      .   S
    O377   C207      1.27197      .   S
    O365   C162      1.27199      .   S
    Zn2    N350      2.08645      .   S
    Zn2    O394      2.13068      .   S
    Zn2    O395      2.07781      .   S
    Zn5    N353      2.08844      .   S
    Zn5    O406      2.12922  1_545   S
    Zn5    O407      2.07952  1_445   S
    H34    C182      1.08924      .   S
    C183   C182      1.40634      .   S
    C183   N350      1.33523      .   S
    O378   Zn10      2.13172      .   S
    O366   Zn7       2.12908  1_545   S
    C228   C227      1.40608      .   S
    C228   N353      1.33536      .   S
    H61    C227      1.08960      .   S
    H128   C332      1.08706      .   S
    H130   C334      1.08687      .   S
    H134   C338      1.08804      .   S
    C182   C181      1.37840      .   S
    O404   C309      1.35422      .   S
    N350   C187      1.37906      .   S
    C227   C226      1.37818      .   S
    O392   C264      1.27780      .   S
    N353   C232      1.37925      .   S
    O394   C264      1.27563      .   S
    O406   C309      1.27382      .   S
    C309   C310      1.50405      .   S
    C264   C265      1.50413      .   S
    C332   C310      1.39942      .   S
    C332   C250      1.39949      .   S
    C334   C265      1.39952      .   S
    C334   C295      1.39947      .   S
    C249   C250      1.50353      .   S
    C249   O388      1.27846      .   S
    C294   C295      1.50408      .   S
    C294   O400      1.27775      .   S
    C310   C311      1.40298      .   S
    C265   C266      1.40288      .   S
    H38    C188      1.08838      .   S
    C181   H33       1.08847      .   S
    C181   C185      1.41234      .   S
    H65    C233      1.08844      .   S
    C187   C188      1.41349      .   S
    C187   C185      1.43444      .   S
    C226   H60       1.08856      .   S
    C226   C230      1.41230      .   S
    C232   C233      1.41349      .   S
    C232   C230      1.43465      .   S
    Zn10   O400      2.06830      .   S
    Zn10   O379      2.07768      .   S
    Zn10   N358      2.08633      .   S
    Zn7    O388      2.06746      .   S
    Zn7    O367      1.97982  1_565   S
    Zn7    N355      2.08685      .   S
    C250   C251      1.40280      .   S
    C295   C296      1.40269      .   S
    H80    C258      1.08909      .   S
    H107   C303      1.08911      .   S
    C207   O379      1.27434      .   S
    C207   C208      1.50380      .   S
    C162   O367      1.36487      .   S
    C162   C163      1.50441      .   S
    C338   C208      1.39762      .   S
    C338   C163      1.39812      .   S
    C188   C184      1.38047      .   S
    C233   C229      1.38043      .   S
    C185   C186      1.41920      .   S
    C230   C231      1.41913      .   S
    C311   H111      1.08638      .   S
    C311   C333      1.39786      .   S
    C266   H84       1.08851      .   S
    C266   C335      1.39573      .   S
    O405   C312      1.27213      .   S
    O393   C267      1.27206  1_455   S
    C251   C333      1.39567      .   S
    C251   H75       1.08863      .   S
    C296   C335      1.39573      .   S
    C296   H102      1.08853      .   S
    O395   C267      1.27432      .   S
    O407   C312      1.27475      .   S
    C208   C209      1.40198      .   S
    C163   C164      1.40271      .   S
    C333   H129      1.08988      .   S
    C335   H131      1.08978      .   S
    C229   H63       1.08878  1_455   S
    C229   C225      1.41429      .   S
    C184   H36       1.08873      .   S
    C184   C180      1.41439      .   S
    C231   H64       1.09030      .   S
    C231   C225      1.37716      .   S
    C186   H37       1.09023      .   S
    C186   C180      1.37732      .   S
    H127   C331      1.08975      .   S
    C258   N355      1.33525      .   S
    C258   C257      1.40615      .   S
    C303   N358      1.33520      .   S
    C303   C302      1.40598      .   S
    C267   C268      1.50267      .   S
    C312   C313      1.50494      .   S
    C225   H59       1.08996      .   S
    C180   H32       1.09028  1_545   S
    N355   C262      1.37888      .   S
    N358   C307      1.37896      .   S
    H79    C257      1.08964      .   S
    H106   C302      1.08955      .   S
    H68    C240      1.08988      .   S
    H95    C285      1.09031  1_545   S
    H73    C246      1.09022      .   S
    H100   C291      1.09033      .   S
    C257   C256      1.37840      .   S
    C302   C301      1.37828      .   S
    C331   C281      1.39568      .   S
    C331   C236      1.39568      .   S
    C209   H49       1.09016      .   S
    C209   C339      1.39598      .   S
    C164   H22       1.08910      .   S
    C164   C339      1.39591      .   S
    C240   C246      1.37719      .   S
    C240   C244      1.41427      .   S
    H93    C281      1.08897      .   S
    H66    C236      1.08846      .   S
    C285   C291      1.37723      .   S
    C285   C289      1.41435      .   S
    C246   C245      1.41926      .   S
    C291   C290      1.41930      .   S
    H110   C308      1.08843      .   S
    H83    C263      1.08835      .   S
    H69    C241      1.08850      .   S
    H96    C286      1.08863      .   S
    C268   C346      1.39923      .   S
    C268   C269      1.40260      .   S
    C313   C342      1.39852      .   S
    C313   C314      1.40265      .   S
    H72    C244      1.08857      .   S
    H138   C342      1.08796      .   S
    H142   C346      1.08798      .   S
    H99    C289      1.08869      .   S
    C281   C280      1.40291      .   S
    C262   C263      1.41349      .   S
    C262   C260      1.43451      .   S
    C236   C235      1.40288      .   S
    C244   C248      1.38044      .   S
    C307   C308      1.41353      .   S
    C307   C305      1.43437      .   S
    H85    C269      1.08929      .   S
    H112   C314      1.08933      .   S
    C289   C293      1.38039      .   S
    C339   H135      1.09024      .   S
    C245   C241      1.41221      .   S
    C245   C247      1.43419      .   S
    C290   C286      1.41210  1_455   S
    C290   C292      1.43484      .   S
    C241   C242      1.37823      .   S
    C286   C287      1.37835      .   S
    C263   C259      1.38034      .   S
    C308   C304      1.37893      .   S
    C342   C238      1.39843      .   S
    C346   C283      1.39820      .   S
    C256   C260      1.41244      .   S
    C256   H78       1.08865      .   S
    C301   C305      1.41227      .   S
    C301   H105      1.08843      .   S
    C269   C347      1.39580      .   S
    C314   C343      1.39586      .   S
    C248   C247      1.41316      .   S
    C248   H74       1.08847      .   S
    C293   C292      1.41355      .   S
    C293   H101      1.08841      .   S
    C247   N354      1.37994      .   S
    C292   N357      1.37906  1_455   S
    C242   H70       1.08962      .   S
    C242   C243      1.40566      .   S
    C287   H97       1.08962      .   S
    C287   C288      1.40619      .   S
    C260   C261      1.41918      .   S
    C305   C306      1.41924      .   S
    C280   C330      1.39954      .   S
    C280   C279      1.50375      .   S
    C235   C330      1.39933      .   S
    C235   C234      1.50381      .   S
    N354   C243      1.33486      .   S
    N354   Zn6       2.08760      .   S
    N357   C288      1.33478      .   S
    N357   Zn9       2.08709  1_655   S
    C243   H71       1.08995      .   S
    C288   H98       1.08911      .   S
    O396   C279      1.27771      .   S
    O396   Zn9       2.06744      .   S
    O384   C234      1.27759      .   S
    O384   Zn6       2.06765      .   S
    C304   H108      1.08975      .   S
    C304   C300      1.41505      .   S
    C259   H81       1.08866      .   S
    C259   C255      1.41444      .   S
    C283   C284      1.40258      .   S
    C283   C282      1.50431      .   S
    C238   C237      1.50471      .   S
    C238   C239      1.40199      .   S
    C347   H143      1.09041      .   S
    C347   C284      1.39590      .   S
    C343   H139      1.09054      .   S
    C343   C239      1.39596      .   S
    O385   C237      1.27204      .   S
    O385   Zn6       2.07751      .   S
    O397   C282      1.27194      .   S
    O397   Zn9       2.07612  1_655   S
    C330   H126      1.08695      .   S
    C279   O398      1.27345      .   S
    C234   O386      1.27369      .   S
    C261   C255      1.37728      .   S
    C261   H82       1.09026      .   S
    C306   C300      1.37735      .   S
    C306   H109      1.09028      .   S
    C237   O387      1.27446      .   S
    C284   H94       1.08930      .   S
    C282   O399      1.27446      .   S
    C239   H67       1.08990      .   S
    Zn0    Zn6       2.98539  1_554   S
    Zn1    Zn7       2.98281  1_545   S
    Zn2    Zn8       2.98310  1_655   S
    Zn3    Zn9       2.98252  1_654   S
    Zn4    Zn10      2.98203      .   S
    Zn5    Zn11      2.98691  1_445   S
