# CIF file generated by openbabel 2.4.90, see http://openbabel.sf.net
data_I
_chemical_name_common ''
_cell_length_a 10.009
_cell_length_b 13.154
_cell_length_c 15.547
_cell_angle_alpha 89.998
_cell_angle_beta 89.946
_cell_angle_gamma 89.972
_space_group_name_H-M_alt 'P 1'
_space_group_name_Hall 'P 1'
loop_
    _symmetry_equiv_pos_as_xyz
    x,y,z
loop_
    _atom_site_label
    _atom_site_type_symbol
    _atom_site_fract_x
    _atom_site_fract_y
    _atom_site_fract_z
    _atom_site_occupancy
    H0      H    0.53058   0.97472   0.35718   1.000
    H1      H    0.78079   0.04155   0.33785   1.000
    H2      H    0.66036   0.77795   0.46678   1.000
    H3      H    0.50461   0.86293   0.58489   1.000
    H4      H    0.97917   0.02746   0.85629   1.000
    H5      H    0.72912   0.96065   0.83663   1.000
    H6      H    0.84780   0.22540   0.96684   1.000
    H7      H    0.00388   0.14141   0.08503   1.000
    H8      H    0.47746   0.47523   0.14435   1.000
    H9      H    0.22731   0.54182   0.16487   1.000
    H10     H    0.34789   0.27677   0.03665   1.000
    H11     H    0.50422   0.36105   0.91868   1.000
    H12     H    0.03099   0.52632   0.64514   1.000
    H13     H    0.28133   0.45978   0.66521   1.000
    H14     H    0.16388   0.72474   0.53735   1.000
    H15     H    0.00694   0.64196   0.41909   1.000
    C16     C    0.46681   0.11138   0.28972   1.000
    C17     C    0.55953   0.04478   0.32507   1.000
    C18     C    0.69149   0.07957   0.31475   1.000
    C19     C    0.69768   0.17191   0.27162   1.000
    C20     C    0.79662   0.90492   0.48453   1.000
    C21     C    0.68199   0.84829   0.50078   1.000
    C22     C    0.59967   0.89354   0.56323   1.000
    C23     C    0.65295   0.98374   0.59465   1.000
    C24     C    0.04343   0.89106   0.78859   1.000
    C25     C    0.95042   0.95751   0.82398   1.000
    C26     C    0.81854   0.92274   0.81347   1.000
    C27     C    0.81262   0.83065   0.76997   1.000
    C28     C    0.71279   0.09754   0.98442   1.000
    C29     C    0.82672   0.15490   0.00000   1.000
    C30     C    0.90925   0.11021   0.06333   1.000
    C31     C    0.85693   0.01966   0.09472   1.000
    C32     C    0.54154   0.61073   0.21331   1.000
    C33     C    0.44866   0.54480   0.17731   1.000
    C34     C    0.31666   0.57942   0.18830   1.000
    C35     C    0.31051   0.67098   0.23259   1.000
    C36     C    0.21252   0.40448   0.01906   1.000
    C37     C    0.32673   0.34729   0.00276   1.000
    C38     C    0.40939   0.39215   0.94032   1.000
    C39     C    0.35693   0.48267   0.90893   1.000
    C40     C    0.96738   0.39093   0.71445   1.000
    C41     C    0.06002   0.45687   0.67815   1.000
    C42     C    0.19200   0.42230   0.68888   1.000
    C43     C    0.19823   0.33077   0.73321   1.000
    C44     C    0.29782   0.59625   0.51946   1.000
    C45     C    0.18426   0.65419   0.50329   1.000
    C46     C    0.10127   0.61010   0.44074   1.000
    C47     C    0.15279   0.51931   0.40917   1.000
    S48     S    0.54156   0.21626   0.24343   1.000
    S49     S    0.80368   0.01359   0.54675   1.000
    S50     S    0.96900   0.78647   0.74178   1.000
    S51     S    0.70673   0.98884   0.04668   1.000
    S52     S    0.46681   0.71480   0.26100   1.000
    S53     S    0.20642   0.51327   0.95688   1.000
    S54     S    0.04214   0.28688   0.76202   1.000
    S55     S    0.30280   0.48757   0.45707   1.000
loop_
    _geom_bond_atom_site_label_1
    _geom_bond_atom_site_label_2
    _geom_bond_distance
    _geom_bond_site_symmetry_2
    _ccdc_geom_bond_type
    C29    C30       1.41362      .   S
    C29    H6        1.08178  1_554   S
    C29    C28       1.38913  1_554   S
    C37    C36       1.39128      .   S
    C37    H10       1.08761      .   S
    C37    C38       1.40498  1_554   S
    C36    S53       1.72794  1_554   S
    S51    C31       1.72767  1_565   S
    S51    C28       1.72768  1_564   S
    C30    H7        1.08643  1_655   S
    C30    C31       1.38973      .   S
    H8     C33       1.08747      .   S
    H9     C34       1.08543      .   S
    C33    C34       1.40748      .   S
    C33    C32       1.38976      .   S
    C34    C35       1.38871      .   S
    C32    S52       1.72661      .   S
    C35    S52       1.72531      .   S
    S48    C19       1.72468      .   S
    S48    C16       1.72651      .   S
    C19    C18       1.38884      .   S
    C16    C17       1.38955      .   S
    C18    C17       1.40702      .   S
    C18    H1        1.08542      .   S
    C17    H0        1.08742  1_545   S
    C47    C46       1.38994      .   S
    C47    S55       1.72767      .   S
    H15    C46       1.08656      .   S
    C46    C45       1.40499      .   S
    S55    C44       1.72829      .   S
    H2     C21       1.08758      .   S
    C20    C21       1.39116      .   S
    C20    S49       1.72748  1_565   S
    C21    C22       1.40489      .   S
    C45    C44       1.39125      .   S
    C45    H14       1.08762      .   S
    S49    C23       1.72721  1_545   S
    C22    H3        1.08650      .   S
    C22    C23       1.38992      .   S
    H12    C41       1.08742      .   S
    H13    C42       1.08528      .   S
    C41    C42       1.40692      .   S
    C41    C40       1.38933  1_455   S
    C42    C43       1.38867      .   S
    C40    S54       1.72626  1_655   S
    C43    S54       1.72458      .   S
    S50    C27       1.72556      .   S
    S50    C24       1.72604  1_655   S
    C27    C26       1.38871      .   S
    C24    C25       1.38981  1_455   S
    C26    C25       1.40675      .   S
    C26    H5        1.08556      .   S
    C25    H4        1.08739  1_565   S
    C39    C38       1.38985      .   S
    C39    S53       1.72759      .   S
    H11    C38       1.08646      .   S
