# CIF file generated by openbabel 2.4.90, see http://openbabel.sf.net
data_I
_chemical_name_common ''
_cell_length_a 10.009
_cell_length_b 13.154
_cell_length_c 15.547
_cell_angle_alpha 89.998
_cell_angle_beta 89.946
_cell_angle_gamma 89.972
_space_group_name_H-M_alt 'P 1'
_space_group_name_Hall 'P 1'
loop_
    _symmetry_equiv_pos_as_xyz
    x,y,z
loop_
    _atom_site_label
    _atom_site_type_symbol
    _atom_site_fract_x
    _atom_site_fract_y
    _atom_site_fract_z
    _atom_site_occupancy
    C0      C    0.31998   0.10268   0.28828   1.000
    C1      C    0.81732   0.23215   0.25201   1.000
    C2      C    0.89562   0.88313   0.41698   1.000
    C3      C    0.59445   0.04980   0.66129   1.000
    C4      C    0.19024   0.90038   0.78782   1.000
    C5      C    0.69326   0.77023   0.75029   1.000
    C6      C    0.61352   0.11862   0.91691   1.000
    C7      C    0.91563   0.95388   0.16144   1.000
    C8      C    0.68847   0.60213   0.21422   1.000
    C9      C    0.19133   0.73164   0.25287   1.000
    C10     C    0.11328   0.38345   0.08670   1.000
    C11     C    0.41600   0.54855   0.84237   1.000
    C12     C    0.82059   0.39961   0.71559   1.000
    C13     C    0.31786   0.27073   0.75324   1.000
    C14     C    0.39729   0.61697   0.58688   1.000
    C15     C    0.09305   0.45421   0.34231   1.000
    O16     O    0.26807   0.02675   0.32664   1.000
    O17     O    0.79975   0.31510   0.21100   1.000
    O18     O    0.98223   0.95216   0.39998   1.000
    O19     O    0.48280   0.02156   0.69308   1.000
    O20     O    0.25835   0.17283   0.24785   1.000
    O21     O    0.88474   0.79785   0.37862   1.000
    O22     O    0.66024   0.12957   0.68190   1.000
    O23     O    0.92954   0.19638   0.27788   1.000
    O24     O    0.24003   0.97697   0.82644   1.000
    O25     O    0.71107   0.68848   0.70756   1.000
    O26     O    0.52824   0.04860   0.89989   1.000
    O27     O    0.02698   0.98226   0.19340   1.000
    O28     O    0.25400   0.83099   0.74781   1.000
    O29     O    0.62251   0.20409   0.87872   1.000
    O30     O    0.84984   0.87395   0.18187   1.000
    O31     O    0.58103   0.80430   0.77783   1.000
    O32     O    0.74038   0.52685   0.17480   1.000
    O33     O    0.21025   0.81318   0.29573   1.000
    O34     O    0.02786   0.45346   0.10372   1.000
    O35     O    0.52747   0.52001   0.81045   1.000
    O36     O    0.75040   0.67134   0.25559   1.000
    O37     O    0.12237   0.29802   0.12499   1.000
    O38     O    0.35065   0.62875   0.82200   1.000
    O39     O    0.07869   0.69814   0.22580   1.000
    O40     O    0.76899   0.47538   0.67681   1.000
    O41     O    0.30061   0.18896   0.79595   1.000
    O42     O    0.48267   0.54696   0.60386   1.000
    O43     O    0.98288   0.48461   0.30992   1.000
    O44     O    0.75864   0.32984   0.75629   1.000
    O45     O    0.38847   0.70246   0.62517   1.000
    O46     O    0.15655   0.37314   0.32216   1.000
    O47     O    0.42985   0.30547   0.72586   1.000
loop_
    _geom_bond_atom_site_label_1
    _geom_bond_atom_site_label_2
    _geom_bond_distance
    _geom_bond_site_symmetry_2
    _ccdc_geom_bond_type
    C10    O34       1.28367      .   S
    C10    O37       1.27479      .   S
    C7     O30       1.28076      .   S
    C7     O27       1.27668  1_655   S
    O32    C8        1.27479      .   S
    O17    C1        1.27586      .   S
    C8     O36       1.27590      .   S
    O39    C9        1.28201      .   S
    O20    C0        1.27572      .   S
    C1     O23       1.28261      .   S
    C9     O33       1.27713      .   S
    C0     O16       1.27400      .   S
    O43    C15       1.27678  1_655   S
    O46    C15       1.27999      .   S
    O21    C2        1.27521      .   S
    O18    C2        1.28305      .   S
    C14    O42       1.28353      .   S
    C14    O45       1.27542      .   S
    C3     O22       1.28010      .   S
    C3     O19       1.27695      .   S
    O40    C12       1.27411      .   S
    O25    C5        1.27634      .   S
    C12    O44       1.27557      .   S
    O47    C13       1.28308      .   S
    O28    C4        1.27511      .   S
    C5     O31       1.28247      .   S
    C13    O41       1.27565      .   S
    C4     O24       1.27477      .   S
    O35    C11       1.27699      .   S
    O38    C11       1.28090      .   S
    O29    C6        1.27464      .   S
    O26    C6        1.28381      .   S
