# CIF file generated by openbabel 2.4.90, see http://openbabel.sf.net
data_I
_chemical_name_common ''
_cell_length_a 10.009
_cell_length_b 13.154
_cell_length_c 15.547
_cell_angle_alpha 89.998
_cell_angle_beta 89.946
_cell_angle_gamma 89.972
_space_group_name_H-M_alt 'P 1'
_space_group_name_Hall 'P 1'
loop_
    _symmetry_equiv_pos_as_xyz
    x,y,z
loop_
    _atom_site_label
    _atom_site_type_symbol
    _atom_site_fract_x
    _atom_site_fract_y
    _atom_site_fract_z
    _atom_site_occupancy
    Zn0     Zn   0.09972   0.25866   0.24793   1.000
    Zn1     Zn   0.40001   0.05837   0.80394   1.000
    Zn2     Zn   0.41059   0.74218   0.74791   1.000
    Zn3     Zn   0.89969   0.44467   0.19991   1.000
    Zn4     Zn   0.90716   0.75965   0.25572   1.000
    Zn5     Zn   0.61074   0.55899   0.69988   1.000
    Zn6     Zn   0.60025   0.24372   0.75579   1.000
    C7      C    0.31998   0.10268   0.28828   1.000
    C8      C    0.81732   0.23215   0.25201   1.000
    Zn9     Zn   0.11034   0.94272   0.30372   1.000
    C10     C    0.89562   0.88313   0.41698   1.000
    C11     C    0.59445   0.04980   0.66129   1.000
    C12     C    0.19024   0.90038   0.78782   1.000
    C13     C    0.69326   0.77023   0.75029   1.000
    C14     C    0.61352   0.11862   0.91691   1.000
    C15     C    0.91563   0.95388   0.16144   1.000
    C16     C    0.68847   0.60213   0.21422   1.000
    C17     C    0.19133   0.73164   0.25287   1.000
    C18     C    0.11328   0.38345   0.08670   1.000
    C19     C    0.41600   0.54855   0.84237   1.000
    C20     C    0.82059   0.39961   0.71559   1.000
    C21     C    0.31786   0.27073   0.75324   1.000
    C22     C    0.39729   0.61697   0.58688   1.000
    C23     C    0.09305   0.45421   0.34231   1.000
    O24     O    0.26807   0.02675   0.32664   1.000
    O25     O    0.79975   0.31510   0.21100   1.000
    O26     O    0.98223   0.95216   0.39998   1.000
    O27     O    0.48280   0.02156   0.69308   1.000
    O28     O    0.25835   0.17283   0.24785   1.000
    O29     O    0.88474   0.79785   0.37862   1.000
    O30     O    0.66024   0.12957   0.68190   1.000
    O31     O    0.92954   0.19638   0.27788   1.000
    O32     O    0.24003   0.97697   0.82644   1.000
    O33     O    0.71107   0.68848   0.70756   1.000
    O34     O    0.52824   0.04860   0.89989   1.000
    O35     O    0.02698   0.98226   0.19340   1.000
    O36     O    0.25400   0.83099   0.74781   1.000
    O37     O    0.62251   0.20409   0.87872   1.000
    O38     O    0.84984   0.87395   0.18187   1.000
    O39     O    0.58103   0.80430   0.77783   1.000
    O40     O    0.74038   0.52685   0.17480   1.000
    O41     O    0.21025   0.81318   0.29573   1.000
    O42     O    0.02786   0.45346   0.10372   1.000
    O43     O    0.52747   0.52001   0.81045   1.000
    O44     O    0.75040   0.67134   0.25559   1.000
    O45     O    0.12237   0.29802   0.12499   1.000
    O46     O    0.35065   0.62875   0.82200   1.000
    O47     O    0.07869   0.69814   0.22580   1.000
    O48     O    0.76899   0.47538   0.67681   1.000
    O49     O    0.30061   0.18896   0.79595   1.000
    O50     O    0.48267   0.54696   0.60386   1.000
    O51     O    0.98288   0.48461   0.30992   1.000
    O52     O    0.75864   0.32984   0.75629   1.000
    O53     O    0.38847   0.70246   0.62517   1.000
    O54     O    0.15655   0.37314   0.32216   1.000
    O55     O    0.42985   0.30547   0.72586   1.000
loop_
    _geom_bond_atom_site_label_1
    _geom_bond_atom_site_label_2
    _geom_bond_distance
    _geom_bond_site_symmetry_2
    _ccdc_geom_bond_type
    C18    O42       1.28367      .   S
    C18    O45       1.27479      .   S
    O42    Zn3       1.97280  1_455   S
    O45    Zn0       1.99306      .   S
    C15    O38       1.28076      .   S
    C15    O35       1.27668  1_655   S
    O40    Zn3       1.96540      .   S
    O40    C16       1.27479      .   S
    O38    Zn4       1.97680      .   S
    O35    Zn9       1.97742      .   S
    Zn3    O25       1.98408      .   S
    Zn3    O51       1.97425      .   S
    O25    C8        1.27586      .   S
    C16    O44       1.27590      .   S
    O47    C17       1.28201      .   S
    O47    Zn4       1.95342  1_455   S
    O28    Zn0       1.94769      .   S
    O28    C7        1.27572      .   S
    Zn0    O31       1.94664  1_455   S
    Zn0    O54       1.98118      .   S
    C8     O31       1.28261      .   S
    C17    O41       1.27713      .   S
    O44    Zn4       1.95263      .   S
    Zn4    O29       1.98821      .   S
    C7     O24       1.27400      .   S
    O41    Zn9       1.97918      .   S
    Zn9    O24       1.96054  1_565   S
    Zn9    O26       1.97383  1_455   S
    O51    C23       1.27678  1_655   S
    O54    C23       1.27999      .   S
    O29    C10       1.27521      .   S
    O26    C10       1.28305      .   S
    C22    O50       1.28353      .   S
    C22    O53       1.27542      .   S
    O50    Zn5       1.97508      .   S
    O53    Zn2       1.99111      .   S
    C11    O30       1.28010      .   S
    C11    O27       1.27695      .   S
    O48    Zn5       1.96064      .   S
    O48    C20       1.27411      .   S
    O30    Zn6       1.98307      .   S
    O27    Zn1       1.97194      .   S
    Zn5    O33       1.98143      .   S
    Zn5    O43       1.97739      .   S
    O33    C13       1.27634      .   S
    C20    O52       1.27557      .   S
    O55    C21       1.28308      .   S
    O55    Zn6       1.94556      .   S
    O36    Zn2       1.95430      .   S
    O36    C12       1.27511      .   S
    Zn2    O39       1.94860      .   S
    Zn2    O46       1.97804      .   S
    C13    O39       1.28247      .   S
    C21    O49       1.27565      .   S
    Zn6    O52       1.94898      .   S
    Zn6    O37       1.99358      .   S
    C12    O32       1.27477      .   S
    O49    Zn1       1.98868      .   S
    Zn1    O32       1.95787  1_545   S
    Zn1    O34       1.97295      .   S
    O43    C19       1.27699      .   S
    O46    C19       1.28090      .   S
    O37    C14       1.27464      .   S
    O34    C14       1.28381      .   S
