# CIF file generated by openbabel 2.4.90, see http://openbabel.sf.net
data_I
_chemical_name_common ''
_cell_length_a 14.614
_cell_length_b 18.285
_cell_length_c 18.361
_cell_angle_alpha 112.518
_cell_angle_beta 105.626
_cell_angle_gamma 105.429
_space_group_name_H-M_alt 'P 1'
_space_group_name_Hall 'P 1'
loop_
    _symmetry_equiv_pos_as_xyz
    x,y,z
loop_
    _atom_site_label
    _atom_site_type_symbol
    _atom_site_fract_x
    _atom_site_fract_y
    _atom_site_fract_z
    _atom_site_occupancy
    Cd0     Cd   0.85391   0.76158   0.39133   1.000
    Cd1     Cd   0.46053   0.60617   0.36660   1.000
    Cd2     Cd   0.90765   0.36756   0.76501   1.000
    Cd3     Cd   0.14607   0.23847   0.60865   1.000
    Cd4     Cd   0.53945   0.39388   0.63338   1.000
    H5      H    0.19127   0.95750   0.47431   1.000
    H6      H    0.43919   0.94056   0.39139   1.000
    H7      H    0.33291   0.78057   0.30127   1.000
    H8      H    0.44678   0.07510   0.40341   1.000
    H9      H    0.33467   0.07493   0.60041   1.000
    H10     H    0.42090   0.23477   0.67580   1.000
    H11     H    0.71583   0.52362   0.48352   1.000
    H12     H    0.04686   0.60749   0.54740   1.000
    H13     H    0.02910   0.69620   0.47432   1.000
    H14     H    0.04327   0.59757   0.67129   1.000
    H15     H    0.73437   0.39776   0.47817   1.000
    H16     H    0.74661   0.32364   0.56506   1.000
    H17     H    0.23234   0.51755   0.03970   1.000
    H18     H    0.49928   0.45287   0.06147   1.000
    H19     H    0.55359   0.52457   0.22122   1.000
    H20     H    0.37372   0.33041   0.92948   1.000
    H21     H    0.25655   0.52376   0.92035   1.000
    Cd22    Cd   0.09232   0.63249   0.23497   1.000
    H23     H    0.18365   0.43827   0.76136   1.000
    H24     H    0.80870   0.04254   0.52567   1.000
    H25     H    0.56078   0.05948   0.60858   1.000
    H26     H    0.66706   0.21948   0.69870   1.000
    H27     H    0.55319   0.92495   0.59656   1.000
    H28     H    0.66529   0.92512   0.39956   1.000
    H29     H    0.57907   0.76528   0.32417   1.000
    H30     H    0.28415   0.47643   0.51646   1.000
    H31     H    0.95312   0.39257   0.45258   1.000
    H32     H    0.97087   0.30385   0.52565   1.000
    H33     H    0.95671   0.40247   0.32868   1.000
    H34     H    0.26561   0.60229   0.52180   1.000
    H35     H    0.25336   0.67641   0.43491   1.000
    H36     H    0.76763   0.48250   0.96028   1.000
    H37     H    0.50070   0.54719   0.93850   1.000
    H38     H    0.44639   0.47549   0.77876   1.000
    H39     H    0.62624   0.66964   0.07050   1.000
    H40     H    0.74342   0.47629   0.07963   1.000
    H41     H    0.81631   0.56178   0.23862   1.000
    C42     C    0.17076   0.83216   0.38314   1.000
    C43     C    0.22683   0.92159   0.43779   1.000
    C44     C    0.32447   0.96379   0.44119   1.000
    C45     C    0.36325   0.91207   0.39081   1.000
    C46     C    0.30410   0.82265   0.33995   1.000
    C47     C    0.06109   0.78665   0.37303   1.000
    C48     C    0.48168   0.19740   0.50870   1.000
    C49     C    0.43783   0.10664   0.46318   1.000
    C50     C    0.38089   0.05957   0.49314   1.000
    C51     C    0.37591   0.10655   0.57194   1.000
    C52     C    0.42404   0.19694   0.61485   1.000
    C53     C    0.53964   0.24970   0.47443   1.000
    C54     C    0.78528   0.61389   0.44621   1.000
    C55     C    0.78761   0.56007   0.48298   1.000
    C56     C    0.88240   0.55739   0.52214   1.000
    C57     C    0.97116   0.60756   0.51924   1.000
    C58     C    0.96197   0.65757   0.47883   1.000
    C59     C    0.68524   0.62343   0.41025   1.000
    C60     C    0.97383   0.49255   0.69117   1.000
    C61     C    0.97492   0.53738   0.64446   1.000
    C62     C    0.88775   0.50625   0.56773   1.000
    C63     C    0.80435   0.42708   0.53777   1.000
    C64     C    0.81026   0.38489   0.58664   1.000
    O65     O    0.15062   0.58157   0.79153   1.000
    O66     O    0.29871   0.60966   0.28931   1.000
    O67     O    0.19793   0.59604   0.16393   1.000
    O68     O    0.22366   0.17480   0.67686   1.000
    C69     C    0.06592   0.52807   0.77757   1.000
    C70     C    0.33834   0.55368   0.16620   1.000
    C71     C    0.30439   0.51761   0.07667   1.000
    C72     C    0.36023   0.47860   0.03589   1.000
    C73     C    0.45151   0.48087   0.08889   1.000
    C74     C    0.48220   0.52052   0.17819   1.000
    C75     C    0.27425   0.58971   0.21069   1.000
    C76     C    0.28549   0.31168   0.80547   1.000
    C77     C    0.33214   0.35753   0.89595   1.000
    C78     C    0.32078   0.43386   0.94033   1.000
    C79     C    0.26754   0.46437   0.89102   1.000
    C80     C    0.22559   0.41629   0.80108   1.000
    C81     C    0.29287   0.22601   0.75592   1.000
    C82     C    0.82921   0.16788   0.61683   1.000
    C83     C    0.77313   0.07845   0.56219   1.000
    C84     C    0.67550   0.03626   0.55879   1.000
    C85     C    0.63672   0.08797   0.60916   1.000
    C86     C    0.69586   0.17740   0.66002   1.000
    C87     C    0.93888   0.21340   0.62695   1.000
    C88     C    0.51829   0.80265   0.49128   1.000
    C89     C    0.56214   0.89341   0.53680   1.000
    C90     C    0.61908   0.94048   0.50683   1.000
    C91     C    0.62406   0.89350   0.42803   1.000
    C92     C    0.57592   0.80311   0.38512   1.000
    C93     C    0.46033   0.75034   0.52554   1.000
    C94     C    0.21469   0.38616   0.55376   1.000
    C95     C    0.21237   0.43997   0.51699   1.000
    C96     C    0.11757   0.44266   0.47783   1.000
    C97     C    0.02881   0.39248   0.48072   1.000
    C98     C    0.03800   0.34248   0.52115   1.000
    C99     C    0.31474   0.37662   0.58973   1.000
    C100    C    0.02614   0.50750   0.30881   1.000
    C101    C    0.02505   0.46267   0.35552   1.000
    C102    C    0.11223   0.49379   0.43225   1.000
    C103    C    0.19562   0.57296   0.46221   1.000
    C104    C    0.18971   0.61516   0.41333   1.000
    C105    C    0.93405   0.47198   0.22241   1.000
    C106    C    0.66163   0.44637   0.83378   1.000
    C107    C    0.69558   0.48245   0.92331   1.000
    C108    C    0.63974   0.52146   0.96409   1.000
    C109    C    0.54847   0.51919   0.91109   1.000
    C110    C    0.51778   0.47954   0.82179   1.000
    C111    C    0.72572   0.41033   0.78929   1.000
    C112    C    0.71447   0.68837   0.19451   1.000
    C113    C    0.66782   0.64252   0.10402   1.000
    C114    C    0.67919   0.56619   0.05964   1.000
    C115    C    0.73243   0.53568   0.10895   1.000
    C116    C    0.77438   0.58376   0.19889   1.000
    C117    C    0.70710   0.77404   0.24406   1.000
    N118    N    0.20889   0.78320   0.33476   1.000
    N119    N    0.47328   0.24141   0.58278   1.000
    N120    N    0.87144   0.66207   0.44413   1.000
    N121    N    0.89174   0.41801   0.66271   1.000
    N122    N    0.42621   0.55513   0.21639   1.000
    N123    N    0.23188   0.34052   0.75927   1.000
    N124    N    0.79107   0.21684   0.66522   1.000
    N125    N    0.52668   0.75863   0.41719   1.000
    N126    N    0.12853   0.33799   0.55586   1.000
    N127    N    0.10824   0.58203   0.33726   1.000
    N128    N    0.57377   0.44493   0.78359   1.000
    N129    N    0.76809   0.65952   0.24071   1.000
    O130    O    0.00658   0.70874   0.31356   1.000
    O131    O    0.03123   0.83208   0.42583   1.000
    O132    O    0.54941   0.32906   0.50290   1.000
    O133    O    0.57238   0.21166   0.42214   1.000
    O134    O    0.68963   0.68261   0.39011   1.000
    O135    O    0.60276   0.57065   0.40418   1.000
    O136    O    0.04740   0.49932   0.82865   1.000
    O137    O    0.36454   0.21268   0.79553   1.000
    O138    O    0.99339   0.29131   0.68642   1.000
    O139    O    0.96875   0.16797   0.57415   1.000
    O140    O    0.45057   0.67098   0.49707   1.000
    O141    O    0.42761   0.78839   0.57784   1.000
    O142    O    0.31034   0.31743   0.60986   1.000
    O143    O    0.39722   0.42939   0.59579   1.000
    O144    O    0.95256   0.50074   0.17133   1.000
    O145    O    0.84934   0.41849   0.20846   1.000
    O146    O    0.70126   0.39039   0.71066   1.000
    O147    O    0.80205   0.40401   0.83605   1.000
    O148    O    0.77631   0.82525   0.32311   1.000
    O149    O    0.63543   0.78737   0.20445   1.000
loop_
    _geom_bond_atom_site_label_1
    _geom_bond_atom_site_label_2
    _geom_bond_distance
    _geom_bond_site_symmetry_2
    _ccdc_geom_bond_type
    C72    C71       1.40181      .   S
    C72    C73       1.40303      .   S
    C72    C78       1.47799  1_554   S
    H17    C71       1.08785      .   S
    C114   C113      1.40176      .   S
    C114   C115      1.40506      .   S
    C114   C108      1.47798  1_554   S
    H18    C73       1.08849      .   S
    H39    C113      1.08935      .   S
    C71    C70       1.39266      .   S
    H40    C115      1.08937      .   S
    C73    C74       1.39126      .   S
    C113   C112      1.39522      .   S
    C115   C116      1.38986      .   S
    O67    C75       1.27412      .   S
    O67    Cd22      2.34375      .   S
    C70    C75       1.51882      .   S
    C70    N122      1.35075      .   S
    O144   C105      1.29163      .   S
    O144   Cd22      2.29801  1_655   S
    C74    N122      1.34409      .   S
    C74    H19       1.09007      .   S
    C112   N129      1.34774      .   S
    C112   C117      1.53115      .   S
    C116   H41       1.08815      .   S
    C116   N129      1.34465      .   S
    O149   C117      1.24354      .   S
    O145   C105      1.24399      .   S
    C75    O66       1.26267      .   S
    N122   Cd1       2.40067      .   S
    C105   C100      1.53140  1_655   S
    Cd22   O130      2.44104      .   S
    Cd22   N118      2.40972      .   S
    Cd22   N127      2.37471      .   S
    N129   Cd0       2.37418      .   S
    C117   O148      1.29261      .   S
    O66    Cd1       2.43959      .   S
    H7     C46       1.09012      .   S
    C100   N127      1.34781      .   S
    C100   C101      1.39525      .   S
    O130   C47       1.26191      .   S
    O148   Cd0       2.29440      .   S
    H29    C92       1.08834      .   S
    H33    C101      1.08924  1_655   S
    N118   C46       1.34436      .   S
    N118   C42       1.35063      .   S
    N127   C104      1.34456      .   S
    C46    C45       1.39157      .   S
    C101   C102      1.40176      .   S
    Cd1    O135      2.34675      .   S
    Cd1    N125      2.38074      .   S
    Cd1    O140      2.29561      .   S
    C47    C42       1.51903      .   S
    C47    O131      1.27452      .   S
    C42    C43       1.39269      .   S
    C92    N125      1.34525      .   S
    C92    C91       1.39022      .   S
    O134   Cd0       2.43950      .   S
    O134   C59       1.26258      .   S
    C45    H6        1.08850      .   S
    C45    C44       1.40307      .   S
    Cd0    O131      2.34329  1_655   S
    Cd0    N120      2.40457      .   S
    H28    C91       1.08933      .   S
    H8     C49       1.08932      .   S
    O135   C59       1.27401      .   S
    C59    C54       1.51913      .   S
    C104   H35       1.08810      .   S
    C104   C103      1.38988      .   S
    N125   C88       1.34791      .   S
    O133   C53       1.24397      .   S
    C91    C90       1.40517      .   S
    C102   C103      1.40490      .   S
    C102   C96       1.47780      .   S
    C43    C44       1.40156      .   S
    C43    H5        1.08766      .   S
    C44    C50       1.47830  1_565   S
    N120   C54       1.35074      .   S
    N120   C58       1.34421      .   S
    C54    C55       1.39267      .   S
    H31    C97       1.08829  1_655   S
    C103   H34       1.08936      .   S
    C49    C50       1.40143      .   S
    C49    C48       1.39522      .   S
    H13    C58       1.08996  1_455   S
    C53    O132      1.29156      .   S
    C53    C48       1.53125      .   S
    C96    C97       1.40297      .   S
    C96    C95       1.40186      .   S
    H15    C63       1.08935      .   S
    C58    C57       1.39148      .   S
    C97    C98       1.39150      .   S
    C55    H11       1.08780      .   S
    C55    C56       1.40184      .   S
    C88    C93       1.53125      .   S
    C88    C89       1.39520      .   S
    C50    C51       1.40517      .   S
    O140   C93       1.29155      .   S
    O132   Cd4       2.29560      .   S
    C90    C89       1.40145      .   S
    C90    C84       1.47831  1_565   S
    C48    N119      1.34790      .   S
    H30    C95       1.08781      .   S
    C95    C94       1.39265      .   S
    C57    C56       1.40298      .   S
    C57    H12       1.08831  1_655   S
    C98    H32       1.08996  1_455   S
    C98    N126      1.34420      .   S
    C56    C62       1.47781      .   S
    C93    O141      1.24397      .   S
    H24    C83       1.08765      .   S
    C89    H27       1.08933      .   S
    C63    C62       1.40489      .   S
    C63    C64       1.38988      .   S
    C94    N126      1.35075      .   S
    C94    C99       1.51915      .   S
    N126   Cd3       2.40460      .   S
    C84    C83       1.40156      .   S
    C84    C85       1.40306      .   S
    C83    C82       1.39269      .   S
    H16    C64       1.08810      .   S
    C62    C61       1.40175      .   S
    C51    H9        1.08934      .   S
    C51    C52       1.39023      .   S
    O139   Cd3       2.34329  1_655   S
    O139   C87       1.27451      .   S
    N119   C52       1.34525      .   S
    N119   Cd4       2.38076      .   S
    C64    N121      1.34456      .   S
    C99    O143      1.27401      .   S
    C99    O142      1.26256      .   S
    O143   Cd4       2.34672      .   S
    H25    C85       1.08851      .   S
    Cd3    O142      2.43947      .   S
    Cd3    O68       2.29438      .   S
    Cd3    N123      2.37418      .   S
    C85    C86       1.39156      .   S
    C52    H10       1.08833      .   S
    C82    C87       1.51903      .   S
    C82    N124      1.35065      .   S
    C87    O138      1.26191      .   S
    Cd4    O146      2.43959      .   S
    Cd4    N128      2.40071      .   S
    C61    H14       1.08924  1_655   S
    C61    C60       1.39525      .   S
    C86    N124      1.34435      .   S
    C86    H26       1.09012      .   S
    N121   C60       1.34781      .   S
    N121   Cd2       2.37475      .   S
    N124   Cd2       2.40971      .   S
    O68    C81       1.29262      .   S
    O138   Cd2       2.44100      .   S
    C60    C69       1.53141  1_655   S
    O146   C111      1.26267      .   S
    C81    O137      1.24354      .   S
    C81    C76       1.53114      .   S
    N123   C80       1.34464      .   S
    N123   C76       1.34775      .   S
    H23    C80       1.08815      .   S
    Cd2    O136      2.29802  1_655   S
    Cd2    O147      2.34376      .   S
    C69    O65       1.24398      .   S
    C69    O136      1.29162      .   S
    H38    C110      1.09006      .   S
    N128   C110      1.34409      .   S
    N128   C106      1.35075      .   S
    C111   C106      1.51883      .   S
    C111   O147      1.27412      .   S
    C80    C79       1.38987      .   S
    C76    C77       1.39521      .   S
    C110   C109      1.39127      .   S
    C106   C107      1.39266      .   S
    C79    H21       1.08935      .   S
    C79    C78       1.40508      .   S
    C77    H20       1.08935      .   S
    C77    C78       1.40175      .   S
    C109   H37       1.08847      .   S
    C109   C108      1.40303      .   S
    C107   H36       1.08784      .   S
    C107   C108      1.40182      .   S
