# CIF file generated by openbabel 2.4.90, see http://openbabel.sf.net
data_I
_chemical_name_common ''
_cell_length_a 14.614
_cell_length_b 18.285
_cell_length_c 18.361
_cell_angle_alpha 112.518
_cell_angle_beta 105.626
_cell_angle_gamma 105.429
_space_group_name_H-M_alt 'P 1'
_space_group_name_Hall 'P 1'
loop_
    _symmetry_equiv_pos_as_xyz
    x,y,z
loop_
    _atom_site_label
    _atom_site_type_symbol
    _atom_site_fract_x
    _atom_site_fract_y
    _atom_site_fract_z
    _atom_site_occupancy
    Zr0     Zr   0.09232   0.63249   0.23497   1.000
    Zr1     Zr   0.85391   0.76158   0.39133   1.000
    Zr2     Zr   0.46053   0.60617   0.36660   1.000
    Zr3     Zr   0.90765   0.36756   0.76501   1.000
    Zr4     Zr   0.14607   0.23847   0.60865   1.000
    Zr5     Zr   0.53945   0.39388   0.63338   1.000
    N6      N    0.32406   0.44279   0.98672   1.000
    O7      O    0.23459   0.52853   0.09308   1.000
    N8      N    0.67591   0.55726   0.01326   1.000
    O9      O    0.76538   0.47152   0.90689   1.000
    N10     N    0.11829   0.45602   0.44139   1.000
    O11     O    0.29331   0.43383   0.52799   1.000
    N12     N    0.66255   0.98649   0.54495   1.000
    O13     O    0.85998   0.09485   0.56817   1.000
    N14     N    0.88168   0.54403   0.55859   1.000
    O15     O    0.70666   0.56622   0.47199   1.000
    N16     N    0.33742   0.01355   0.45503   1.000
    O17     O    0.13999   0.90519   0.43181   1.000
    O18     O    0.21872   0.85139   0.36730   1.000
    O19     O    0.08983   0.52148   0.34301   1.000
    O20     O    0.25549   0.34543   0.82504   1.000
    O21     O    0.15052   0.36956   0.51857   1.000
    O22     O    0.36778   0.51854   0.14822   1.000
    O23     O    0.56857   0.82349   0.47840   1.000
    O24     O    0.91014   0.47857   0.65697   1.000
    O25     O    0.78125   0.14865   0.63268   1.000
    O26     O    0.84945   0.63049   0.48141   1.000
    O27     O    0.74448   0.65462   0.17494   1.000
    O28     O    0.63220   0.48151   0.85176   1.000
    O29     O    0.43141   0.17655   0.52157   1.000
loop_
    _geom_bond_atom_site_label_1
    _geom_bond_atom_site_label_2
    _geom_bond_distance
    _geom_bond_site_symmetry_2
    _ccdc_geom_bond_type
    N6     O7        2.84650  1_556   S
    Zr0    O7        3.99388      .   S
    N8     O9        2.84651  1_554   S
    Zr3    O9        3.99390      .   S
    N10    O11       2.84438      .   S
    Zr5    O11       3.99347      .   S
    N12    O13       2.84259  1_565   S
    Zr4    O13       3.98966  1_455   S
    N14    O15       2.84436      .   S
    Zr2    O15       3.99347      .   S
    N16    O17       2.84258  1_545   S
    Zr1    O17       3.98964  1_655   S
    Zr0    O18       3.39643      .   S
    N16    O18       2.54857  1_545   S
    Zr0    O19       3.33778      .   S
    N10    O19       2.52678      .   S
    Zr4    O20       3.33606      .   S
    N6     O20       2.52713      .   S
    Zr4    O21       3.39061      .   S
    N10    O21       2.54607      .   S
    Zr2    O22       3.38780      .   S
    N6     O22       2.54610  1_556   S
    Zr2    O23       3.34137      .   S
    N12    O23       2.52807      .   S
    Zr3    O24       3.33780      .   S
    N14    O24       2.52677      .   S
    Zr3    O25       3.39643      .   S
    N12    O25       2.54857  1_565   S
    Zr1    O26       3.39061      .   S
    N14    O26       2.54606      .   S
    Zr1    O27       3.33606      .   S
    N8     O27       2.52712      .   S
    Zr5    O28       3.38784      .   S
    N8     O28       2.54612  1_554   S
    Zr5    O29       3.34139      .   S
    N16    O29       2.52808      .   S
