# CIF file generated by openbabel 2.4.90, see http://openbabel.sf.net
data_I
_chemical_name_common ''
_cell_length_a 14.614
_cell_length_b 18.285
_cell_length_c 18.361
_cell_angle_alpha 112.518
_cell_angle_beta 105.626
_cell_angle_gamma 105.429
_space_group_name_H-M_alt 'P 1'
_space_group_name_Hall 'P 1'
loop_
    _symmetry_equiv_pos_as_xyz
    x,y,z
loop_
    _atom_site_label
    _atom_site_type_symbol
    _atom_site_fract_x
    _atom_site_fract_y
    _atom_site_fract_z
    _atom_site_occupancy
    Zr0     Zr   0.09232   0.63249   0.23497   1.000
    Zr1     Zr   0.85391   0.76158   0.39133   1.000
    Zr2     Zr   0.46053   0.60617   0.36660   1.000
    Zr3     Zr   0.90765   0.36756   0.76501   1.000
    Zr4     Zr   0.14607   0.23847   0.60865   1.000
    Zr5     Zr   0.53945   0.39388   0.63338   1.000
    N6      N    0.70545   0.62300   0.66054   1.000
    O7      O    0.64764   0.54336   0.65211   1.000
    N8      N    0.32406   0.44279   0.98672   1.000
    O9      O    0.38371   0.51172   0.13910   1.000
    O10     O    0.35184   0.52535   0.15734   1.000
    O11     O    0.25651   0.36614   0.83534   1.000
    O12     O    0.23459   0.52853   0.09308   1.000
    O13     O    0.25446   0.32471   0.81474   1.000
    N14     N    0.04584   0.33799   0.96502   1.000
    O15     O    0.99673   0.34734   0.89451   1.000
    N16     N    0.67591   0.55726   0.01326   1.000
    O17     O    0.74346   0.63391   0.16464   1.000
    O18     O    0.76538   0.47152   0.90689   1.000
    O19     O    0.64813   0.47470   0.84264   1.000
    O20     O    0.61626   0.48833   0.86087   1.000
    O21     O    0.74551   0.67534   0.18524   1.000
    N22     N    0.29452   0.37705   0.33944   1.000
    O23     O    0.35234   0.45669   0.34786   1.000
    N24     N    0.95413   0.66206   0.03496   1.000
    O25     O    0.00324   0.65271   0.10547   1.000
    N26     N    0.91971   0.95932   0.62034   1.000
    O27     O    0.89684   0.88966   0.54061   1.000
    N28     N    0.11829   0.45602   0.44139   1.000
    O29     O    0.29331   0.43383   0.52799   1.000
    O30     O    0.17325   0.36699   0.52532   1.000
    O31     O    0.12780   0.37213   0.51182   1.000
    O32     O    0.10929   0.53164   0.36375   1.000
    O33     O    0.07037   0.51132   0.32227   1.000
    N34     N    0.66255   0.98649   0.54495   1.000
    O35     O    0.57808   0.83445   0.46842   1.000
    O36     O    0.75596   0.13934   0.63003   1.000
    O37     O    0.85998   0.09485   0.56817   1.000
    O38     O    0.80654   0.15796   0.63533   1.000
    O39     O    0.55905   0.81253   0.48839   1.000
    N40     N    0.88168   0.54403   0.55859   1.000
    O41     O    0.70666   0.56622   0.47199   1.000
    O42     O    0.87218   0.62792   0.48816   1.000
    O43     O    0.82672   0.63306   0.47465   1.000
    O44     O    0.89069   0.46841   0.63622   1.000
    O45     O    0.92960   0.48873   0.67771   1.000
    N46     N    0.33742   0.01355   0.45503   1.000
    O47     O    0.24401   0.86070   0.36995   1.000
    O48     O    0.44092   0.18751   0.51158   1.000
    O49     O    0.13999   0.90519   0.43181   1.000
    O50     O    0.19343   0.84208   0.36465   1.000
    O51     O    0.42189   0.16560   0.53155   1.000
    N52     N    0.08026   0.04073   0.37963   1.000
    O53     O    0.10313   0.11039   0.45936   1.000
loop_
    _geom_bond_atom_site_label_1
    _geom_bond_atom_site_label_2
    _geom_bond_distance
    _geom_bond_site_symmetry_2
    _ccdc_geom_bond_type
    N6     O7        1.40021      .   S
    Zr5    O7        2.60320      .   S
    N8     O9        2.36167  1_556   S
    Zr2    O9        3.55064      .   S
    N8     O10       2.76121  1_556   S
    Zr2    O10       3.25329      .   S
    N8     O11       2.33800      .   S
    Zr4    O11       3.50896      .   S
    N8     O12       2.84650  1_556   S
    Zr0    O12       3.99388      .   S
    N8     O13       2.74711      .   S
    Zr4    O13       3.19154      .   S
    N14    O15       1.39817  1_455   S
    Zr3    O15       2.59742      .   S
    N16    O17       2.33800      .   S
    Zr1    O17       3.50895      .   S
    N16    O18       2.84651  1_554   S
    Zr3    O18       3.99390      .   S
    N16    O19       2.76123  1_554   S
    Zr5    O19       3.25332      .   S
    N16    O20       2.36169  1_554   S
    Zr5    O20       3.55069      .   S
    N16    O21       2.74710      .   S
    Zr1    O21       3.19153      .   S
    N22    O23       1.40021      .   S
    Zr2    O23       2.60319      .   S
    N24    O25       1.39816  1_655   S
    Zr0    O25       2.59739      .   S
    N26    O27       1.39963      .   S
    Zr1    O27       2.60117      .   S
    N28    O29       2.84438      .   S
    Zr5    O29       3.99347      .   S
    N28    O30       2.76061      .   S
    Zr4    O30       3.25657      .   S
    N28    O31       2.36241      .   S
    Zr4    O31       3.55305      .   S
    N28    O32       2.33810      .   S
    Zr0    O32       3.51007      .   S
    N28    O33       2.74628      .   S
    Zr0    O33       3.19382      .   S
    N34    O35       2.33982      .   S
    Zr2    O35       3.51373      .   S
    N34    O36       2.36480  1_565   S
    Zr3    O36       3.55893      .   S
    N34    O37       2.84259  1_565   S
    Zr4    O37       3.98966  1_455   S
    N34    O38       2.76315  1_565   S
    Zr3    O38       3.26225      .   S
    N34    O39       2.74732      .   S
    Zr2    O39       3.19742      .   S
    N40    O41       2.84436      .   S
    Zr2    O41       3.99347      .   S
    N40    O42       2.36240      .   S
    Zr1    O42       3.55304      .   S
    N40    O43       2.76060      .   S
    Zr1    O43       3.25657      .   S
    N40    O44       2.33811      .   S
    Zr3    O44       3.51008      .   S
    N40    O45       2.74626      .   S
    Zr3    O45       3.19385      .   S
    N46    O47       2.36480  1_545   S
    Zr0    O47       3.55893      .   S
    N46    O48       2.74733      .   S
    Zr5    O48       3.19744      .   S
    N46    O49       2.84258  1_545   S
    Zr1    O49       3.98964  1_655   S
    N46    O50       2.76315  1_545   S
    Zr0    O50       3.26225      .   S
    N46    O51       2.33983      .   S
    Zr5    O51       3.51375      .   S
    N52    O53       1.39963      .   S
    Zr4    O53       2.60119      .   S
