# CIF file generated by openbabel 2.4.90, see http://openbabel.sf.net
data_I
_chemical_name_common ''
_cell_length_a 10.7825
_cell_length_b 15.217
_cell_length_c 15.23
_cell_angle_alpha 117.713
_cell_angle_beta 107.007
_cell_angle_gamma 94.796
_space_group_name_H-M_alt 'P 1'
_space_group_name_Hall 'P 1'
loop_
    _symmetry_equiv_pos_as_xyz
    x,y,z
loop_
    _atom_site_label
    _atom_site_type_symbol
    _atom_site_fract_x
    _atom_site_fract_y
    _atom_site_fract_z
    _atom_site_occupancy
    Mc0     Mc   0.38224   0.34247   0.15134   1.000
    Mc1     Mc   0.83727   0.47841   0.22048   1.000
    Mc2     Mc   0.16261   0.52156   0.77953   1.000
    Mc3     Mc   0.61780   0.65742   0.84866   1.000
    Mc4     Mc   0.11233   0.83414   0.17692   1.000
    Mc5     Mc   0.36086   0.63672   0.29004   1.000
    Mc6     Mc   0.63932   0.36330   0.71001   1.000
    Mc7     Mc   0.88768   0.16587   0.82314   1.000
