# CIF file generated by openbabel 2.4.90, see http://openbabel.sf.net
data_I
_chemical_name_common ''
_cell_length_a 10.7825
_cell_length_b 15.217
_cell_length_c 15.23
_cell_angle_alpha 117.713
_cell_angle_beta 107.007
_cell_angle_gamma 94.796
_space_group_name_H-M_alt 'P 1'
_space_group_name_Hall 'P 1'
loop_
    _symmetry_equiv_pos_as_xyz
    x,y,z
loop_
    _atom_site_label
    _atom_site_type_symbol
    _atom_site_fract_x
    _atom_site_fract_y
    _atom_site_fract_z
    _atom_site_occupancy
    H0      H    0.26511   0.42084   0.95585   1.000
    H1      H    0.88698   0.60201   0.93134   1.000
    H2      H    0.73478   0.57905   0.04411   1.000
    H3      H    0.11305   0.39799   0.06868   1.000
    C4      C    0.39443   0.50968   0.92685   1.000
    C5      C    0.36952   0.45295   0.97343   1.000
    C6      C    0.52891   0.55791   0.95303   1.000
    C7      C    0.04868   0.60903   0.05893   1.000
    C8      C    0.93914   0.55676   0.96036   1.000
    C9      C    0.11284   0.55036   0.09918   1.000
    C10     C    0.60546   0.49023   0.07312   1.000
    C11     C    0.63037   0.54694   0.02652   1.000
    C12     C    0.47097   0.44201   0.04695   1.000
    C13     C    0.95142   0.39099   0.94113   1.000
    C14     C    0.06092   0.44328   0.03969   1.000
    C15     C    0.88725   0.44967   0.90089   1.000
loop_
    _geom_bond_atom_site_label_1
    _geom_bond_atom_site_label_2
    _geom_bond_distance
    _geom_bond_site_symmetry_2
    _ccdc_geom_bond_type
    C11    H2        1.08984      .   S
    C11    C10       1.40107      .   S
    C11    C6        1.40199  1_554   S
    C14    H3        1.09005      .   S
    C14    C9        1.40261      .   S
    C14    C13       1.40558  1_454   S
    C12    C10       1.41844      .   S
    C12    C5        1.40196  1_554   S
    C7     C9        1.41979      .   S
    C7     C8        1.40585  1_454   S
    C15    C13       1.41979      .   S
    C15    C8        1.40261      .   S
    C4     C6        1.41846      .   S
    C4     C5        1.40110      .   S
    H1     C8        1.09002      .   S
    H0     C5        1.08984      .   S
