# CIF file generated by openbabel 2.4.90, see http://openbabel.sf.net
data_I
_chemical_name_common ''
_cell_length_a 10.7825
_cell_length_b 15.217
_cell_length_c 15.23
_cell_angle_alpha 117.713
_cell_angle_beta 107.007
_cell_angle_gamma 94.796
_space_group_name_H-M_alt 'P 1'
_space_group_name_Hall 'P 1'
loop_
    _symmetry_equiv_pos_as_xyz
    x,y,z
loop_
    _atom_site_label
    _atom_site_type_symbol
    _atom_site_fract_x
    _atom_site_fract_y
    _atom_site_fract_z
    _atom_site_occupancy
    N0      N    0.49994   0.49995   0.99998   1.000
    N1      N    0.00004   0.50001   0.00002   1.000
    Zr2     Zr   0.00014   0.50005   0.50005   1.000
    O3      O    0.95881   0.48816   0.39526   1.000
    O4      O    0.04136   0.51190   0.60482   1.000
    Zr5     Zr   0.78265   0.81324   0.64784   1.000
    O6      O    0.72070   0.75280   0.72529   1.000
    O7      O    0.82181   0.94352   0.71167   1.000
    O8      O    0.62235   0.74268   0.50848   1.000
    Zr9     Zr   0.21756   0.18669   0.35221   1.000
    O10     O    0.17821   0.05644   0.28836   1.000
    O11     O    0.27950   0.24709   0.27474   1.000
    O12     O    0.37790   0.25726   0.49156   1.000
loop_
    _geom_bond_atom_site_label_1
    _geom_bond_atom_site_label_2
    _geom_bond_distance
    _geom_bond_site_symmetry_2
    _ccdc_geom_bond_type
    Zr2    O3        1.44242  1_455   S
    N0     O3        6.66950  1_556   S
    Zr2    O4        1.44225      .   S
    N0     O4        6.66806      .   S
    Zr5    O6        2.01270      .   S
    N0     O6        7.56544      .   S
    Zr5    O7        1.69730      .   S
    N1     O7        9.66043  1_454   S
    Zr5    O8        2.01728      .   S
    N1     O8        9.83136  1_454   S
    Zr9    O10       1.69687      .   S
    N1     O10       9.66113      .   S
    Zr9    O11       2.01243      .   S
    N0     O11       7.56503  1_556   S
    Zr9    O12       2.01739      .   S
    N1     O12       9.83266      .   S
