# CIF file generated by openbabel 2.4.90, see http://openbabel.sf.net
data_I
_chemical_name_common ''
_cell_length_a 22.222
_cell_length_b 16.168
_cell_length_c 15.922
_cell_angle_alpha 89.998
_cell_angle_beta 91.136
_cell_angle_gamma 89.999
_space_group_name_H-M_alt 'P 1'
_space_group_name_Hall 'P 1'
loop_
    _symmetry_equiv_pos_as_xyz
    x,y,z
loop_
    _atom_site_label
    _atom_site_type_symbol
    _atom_site_fract_x
    _atom_site_fract_y
    _atom_site_fract_z
    _atom_site_occupancy
    Zn0     Zn   0.75022   0.50000   0.58640   1.000
    Zn1     Zn   0.24979   0.50001   0.41356   1.000
    Zn2     Zn   0.74979   0.50001   0.41356   1.000
    Zn3     Zn   0.25022   0.50000   0.58640   1.000
loop_
    _geom_bond_atom_site_label_1
    _geom_bond_atom_site_label_2
    _geom_bond_distance
    _geom_bond_site_symmetry_2
    _ccdc_geom_bond_type
    Zn3    Zn1       2.75179      .   S
    Zn0    Zn2       2.75179      .   S
