# CIF file generated by openbabel 2.4.90, see http://openbabel.sf.net
data_I
_chemical_name_common ''
_cell_length_a 6.7645
_cell_length_b 6.7675
_cell_length_c 27.873
_cell_angle_alpha 90.329
_cell_angle_beta 90.02
_cell_angle_gamma 96.05
_space_group_name_H-M_alt 'P 1'
_space_group_name_Hall 'P 1'
loop_
    _symmetry_equiv_pos_as_xyz
    x,y,z
loop_
    _atom_site_label
    _atom_site_type_symbol
    _atom_site_fract_x
    _atom_site_fract_y
    _atom_site_fract_z
    _atom_site_occupancy
    Zn0     Zn   0.96546   0.31715   0.70839   1.000
    Zn1     Zn   0.46544   0.81735   0.79155   1.000
    Zn2     Zn   0.81726   0.46443   0.20847   1.000
    Zn3     Zn   0.31730   0.96592   0.29157   1.000
    C4      C    0.15404   0.76363   0.20400   1.000
    C5      C    0.51544   0.76716   0.21153   1.000
    C6      C    0.76462   0.15436   0.79578   1.000
    C7      C    0.76861   0.51567   0.78853   1.000
    C8      C    0.26449   0.65406   0.70388   1.000
    C9      C    0.26868   0.01554   0.71158   1.000
    C10     C    0.65425   0.26517   0.29603   1.000
    C11     C    0.01567   0.26939   0.28853   1.000
    O12     O    0.10781   0.80814   0.24662   1.000
    O13     O    0.04882   0.64087   0.17722   1.000
    O14     O    0.53408   0.80781   0.25587   1.000
    O15     O    0.61793   0.65396   0.18761   1.000
    O16     O    0.80765   0.10779   0.75310   1.000
    O17     O    0.64275   0.04962   0.82258   1.000
    O18     O    0.80834   0.53376   0.74421   1.000
    O19     O    0.65605   0.61863   0.81249   1.000
    O20     O    0.30853   0.60797   0.74643   1.000
    O21     O    0.14156   0.54900   0.67714   1.000
    O22     O    0.30779   0.03406   0.75598   1.000
    O23     O    0.15699   0.11860   0.68763   1.000
    O24     O    0.60771   0.30803   0.25345   1.000
    O25     O    0.54960   0.14303   0.32274   1.000
    O26     O    0.03395   0.30811   0.24418   1.000
    O27     O    0.11861   0.15751   0.31242   1.000
loop_
    _geom_bond_atom_site_label_1
    _geom_bond_atom_site_label_2
    _geom_bond_distance
    _geom_bond_site_symmetry_2
    _ccdc_geom_bond_type
    O13    C4        1.27346      .   S
    O13    Zn2       2.06322  1_455   S
    O15    Zn2       2.04307      .   S
    O15    C5        1.27222      .   S
    C4     O12       1.27102      .   S
    Zn2    O26       2.14387  1_655   S
    Zn2    O24       2.09792      .   S
    C5     O14       1.26805      .   S
    O26    C11       1.26837      .   S
    O12    Zn3       2.09355      .   S
    O24    C10       1.27077      .   S
    O14    Zn3       2.14600      .   S
    C11    O27       1.27216      .   S
    Zn3    O27       2.04558  1_565   S
    Zn3    O25       2.06165  1_565   S
    C10    O25       1.27383      .   S
    O21    C8        1.27332      .   S
    O21    Zn0       2.06446  1_455   S
    O23    Zn0       2.04389  1_455   S
    O23    C9        1.27241      .   S
    C8     O20       1.27123      .   S
    Zn0    O18       2.14189      .   S
    Zn0    O16       2.09816      .   S
    C9     O22       1.26801      .   S
    O18    C7        1.26831      .   S
    O20    Zn1       2.09237      .   S
    O16    C6        1.27080      .   S
    O22    Zn1       2.14874  1_545   S
    C7     O19       1.27197      .   S
    Zn1    O19       2.04590      .   S
    Zn1    O17       2.05994  1_565   S
    C6     O17       1.27402      .   S
