# CIF file generated by openbabel 2.4.90, see http://openbabel.sf.net
data_I
_chemical_name_common ''
_cell_length_a 12.416
_cell_length_b 15.662
_cell_length_c 15.483
_cell_angle_alpha 89.974
_cell_angle_beta 89.987
_cell_angle_gamma 90.033
_space_group_name_H-M_alt 'P 1'
_space_group_name_Hall 'P 1'
loop_
    _symmetry_equiv_pos_as_xyz
    x,y,z
loop_
    _atom_site_label
    _atom_site_type_symbol
    _atom_site_fract_x
    _atom_site_fract_y
    _atom_site_fract_z
    _atom_site_occupancy
    Cu0     Cu   0.49998   0.49997   0.50000   1.000
    Cu1     Cu   0.15690   0.99997   0.18490   1.000
    Cu2     Cu   0.84311   1.00000   0.81508   1.000
    Cu3     Cu   0.34311   0.50005   0.68492   1.000
    Cu4     Cu   0.65687   0.49993   0.31509   1.000
    Cu5     Cu   0.99998   0.00002   0.00000   1.000
    Cl6     Cl   0.21658   0.00022   0.03689   1.000
    Cl7     Cl   0.78341   0.99986   0.96309   1.000
    Cl8     Cl   0.28346   0.50010   0.53692   1.000
    Cl9     Cl   0.71650   0.49986   0.46309   1.000
loop_
    _geom_bond_atom_site_label_1
    _geom_bond_atom_site_label_2
    _geom_bond_distance
    _geom_bond_site_symmetry_2
    _ccdc_geom_bond_type
    Cl6    Cu1       2.40830  1_545   S
    Cu4    Cl9       2.40831      .   S
    Cl8    Cu3       2.40833      .   S
    Cu2    Cl7       2.40841      .   S
