# CIF file generated by openbabel 2.4.90, see http://openbabel.sf.net
data_I
_chemical_name_common ''
_cell_length_a 12.416
_cell_length_b 15.662
_cell_length_c 15.483
_cell_angle_alpha 89.974
_cell_angle_beta 89.987
_cell_angle_gamma 90.033
_space_group_name_H-M_alt 'P 1'
_space_group_name_Hall 'P 1'
loop_
    _symmetry_equiv_pos_as_xyz
    x,y,z
loop_
    _atom_site_label
    _atom_site_type_symbol
    _atom_site_fract_x
    _atom_site_fract_y
    _atom_site_fract_z
    _atom_site_occupancy
    N0      N    0.13319   0.72830   0.79515   1.000
    N1      N    0.63324   0.77177   0.70486   1.000
    N2      N    0.36674   0.77180   0.29493   1.000
    N3      N    0.13322   0.27198   0.79488   1.000
    N4      N    0.86673   0.27171   0.20488   1.000
    N5      N    0.86681   0.72804   0.20511   1.000
    N6      N    0.36674   0.22814   0.29510   1.000
    N7      N    0.63324   0.22813   0.70511   1.000
    Zr8     Zr   0.99998   0.00002   0.00000   1.000
    O9      O    0.96463   0.92054   0.06287   1.000
    O10     O    0.96458   0.07939   0.06278   1.000
    O11     O    0.03536   0.07949   0.93712   1.000
    O12     O    0.03537   0.92063   0.93723   1.000
    Zr13    Zr   0.49998   0.49997   0.50000   1.000
    O14     O    0.53538   0.57938   0.56278   1.000
    O15     O    0.46459   0.42055   0.43721   1.000
    O16     O    0.46460   0.57939   0.43713   1.000
    O17     O    0.53538   0.42054   0.56288   1.000
    Zr18    Zr   0.18674   0.00010   0.11090   1.000
    O19     O    0.08471   0.92083   0.15068   1.000
    O20     O    0.08467   0.07917   0.15059   1.000
    O21     O    0.23628   0.06873   0.18191   1.000
    O22     O    0.23629   0.93134   0.18187   1.000
    Zr23    Zr   0.81326   0.99993   0.88909   1.000
    O24     O    0.76370   0.06865   0.81814   1.000
    O25     O    0.76372   0.93124   0.81805   1.000
    O26     O    0.91532   0.07918   0.84929   1.000
    O27     O    0.91529   0.92082   0.84943   1.000
    Zr28    Zr   0.31328   0.50007   0.61092   1.000
    O29     O    0.41535   0.42086   0.65070   1.000
    O30     O    0.41531   0.57920   0.65059   1.000
    O31     O    0.26372   0.43140   0.68185   1.000
    O32     O    0.26369   0.56879   0.68196   1.000
    Zr33    Zr   0.68668   0.49990   0.38909   1.000
    O34     O    0.73627   0.56859   0.31815   1.000
    O35     O    0.73626   0.43120   0.31806   1.000
    O36     O    0.58466   0.42075   0.34941   1.000
    O37     O    0.58463   0.57910   0.34931   1.000
loop_
    _geom_bond_atom_site_label_1
    _geom_bond_atom_site_label_2
    _geom_bond_distance
    _geom_bond_site_symmetry_2
    _ccdc_geom_bond_type
    Zr8    O9        1.63944  1_545   S
    N5     O9        3.92475      .   S
    Zr8    O10       1.63863      .   S
    N4     O10       3.92399      .   S
    Zr8    O11       1.63951  1_654   S
    N3     O11       3.92482      .   S
    Zr8    O12       1.63863  1_644   S
    N0     O12       3.92396      .   S
    Zr13   O14       1.63877      .   S
    N1     O14       3.92407      .   S
    Zr13   O15       1.63892      .   S
    N6     O15       3.92448      .   S
    Zr13   O16       1.63943      .   S
    N2     O16       3.92480      .   S
    Zr13   O17       1.63957      .   S
    N7     O17       3.92511      .   S
    Zr18   O19       1.87690  1_545   S
    N5     O19       4.13929  1_655   S
    Zr18   O20       1.87615      .   S
    N4     O20       4.13910  1_655   S
    Zr18   O21       1.65638      .   S
    N6     O21       3.45376      .   S
    Zr18   O22       1.65708  1_545   S
    N2     O22       3.45441      .   S
    Zr23   O24       1.65635  1_565   S
    N7     O24       3.45361      .   S
    Zr23   O25       1.65707      .   S
    N1     O25       3.45464      .   S
    Zr23   O26       1.87695  1_565   S
    N3     O26       4.13945  1_455   S
    Zr23   O27       1.87593      .   S
    N0     O27       4.13867  1_455   S
    Zr28   O29       1.87780      .   S
    N7     O29       4.14102      .   S
    Zr28   O30       1.87529      .   S
    N1     O30       4.13745      .   S
    Zr28   O31       1.65518      .   S
    N3     O31       3.45138      .   S
    Zr28   O32       1.65789      .   S
    N0     O32       3.45621      .   S
    Zr33   O34       1.65556      .   S
    N5     O34       3.45207      .   S
    Zr33   O35       1.65756      .   S
    N4     O35       3.45572      .   S
    Zr33   O36       1.87559      .   S
    N6     O36       4.13790      .   S
    Zr33   O37       1.87752      .   S
    N2     O37       4.14059      .   S
