# CIF file generated by openbabel 2.4.90, see http://openbabel.sf.net
data_I
_chemical_name_common ''
_cell_length_a 13.128
_cell_length_b 13.969
_cell_length_c 16.99
_cell_angle_alpha 90
_cell_angle_beta 90.046
_cell_angle_gamma 90.119
_space_group_name_H-M_alt 'P 1'
_space_group_name_Hall 'P 1'
loop_
    _symmetry_equiv_pos_as_xyz
    x,y,z
loop_
    _atom_site_label
    _atom_site_type_symbol
    _atom_site_fract_x
    _atom_site_fract_y
    _atom_site_fract_z
    _atom_site_occupancy
    Zr0     Zr   0.42651   0.97964   0.40638   1.000
    Zr1     Zr   0.47618   0.90836   0.07314   1.000
    Zr2     Zr   0.57337   0.52032   0.90639   1.000
    Zr3     Zr   0.52378   0.59164   0.57314   1.000
    Zr4     Zr   0.92757   0.01861   0.09660   1.000
    Zr5     Zr   0.97780   0.09226   0.42943   1.000
    Zr6     Zr   0.07250   0.48178   0.59663   1.000
    Zr7     Zr   0.02210   0.40781   0.92939   1.000
    Zr8     Zr   0.57316   0.02040   0.59365   1.000
    Zr9     Zr   0.52404   0.09152   0.92690   1.000
    Zr10    Zr   0.42680   0.47966   0.09366   1.000
    Zr11    Zr   0.47583   0.40846   0.42701   1.000
    Zr12    Zr   0.07213   0.98035   0.90660   1.000
    Zr13    Zr   0.02226   0.90849   0.57320   1.000
    Zr14    Zr   0.92734   0.51974   0.40685   1.000
    Zr15    Zr   0.97752   0.59162   0.07325   1.000
    N16     N    0.79429   0.98144   0.58132   1.000
    O17     O    0.72197   0.00088   0.58222   1.000
    O18     O    0.87420   0.96049   0.57249   1.000
    O19     O    0.85918   0.02675   0.52514   1.000
    N20     N    0.48467   0.28467   0.00080   1.000
    O21     O    0.49939   0.22418   0.97105   1.000
    O22     O    0.46816   0.35628   0.02787   1.000
    O23     O    0.51454   0.37094   0.96230   1.000
    N24     N    0.48450   0.78472   0.49918   1.000
    O25     O    0.51433   0.87101   0.53773   1.000
    O26     O    0.46800   0.85631   0.47213   1.000
    O27     O    0.49917   0.72426   0.52898   1.000
    N28     N    0.98349   0.71533   0.49931   1.000
    O29     O    0.01336   0.62974   0.53875   1.000
    O30     O    0.99780   0.77592   0.52912   1.000
    O31     O    0.96769   0.64355   0.47241   1.000
    N32     N    0.20520   0.01856   0.41959   1.000
    O33     O    0.14056   0.97350   0.47633   1.000
    O34     O    0.27757   0.99909   0.41838   1.000
    O35     O    0.12549   0.03974   0.42895   1.000
    N36     N    0.44496   0.96309   0.23228   1.000
    O37     O    0.44795   0.95028   0.29688   1.000
    N38     N    0.01687   0.78491   0.99941   1.000
    O39     O    0.00243   0.72427   0.02920   1.000
    O40     O    0.98681   0.87052   0.03879   1.000
    O41     O    0.03245   0.85664   0.97244   1.000
    N42     N    0.44512   0.46308   0.26783   1.000
    O43     O    0.44813   0.45029   0.20319   1.000
    N44     N    0.55496   0.53689   0.73227   1.000
    O45     O    0.55196   0.54968   0.79688   1.000
    N46     N    0.70534   0.48064   0.41884   1.000
    O47     O    0.64094   0.52615   0.47553   1.000
    O48     O    0.62493   0.45999   0.42760   1.000
    O49     O    0.77794   0.50007   0.41805   1.000
    N50     N    0.51514   0.21538   0.50093   1.000
    O51     O    0.50043   0.27585   0.47115   1.000
    O52     O    0.48527   0.12909   0.46236   1.000
    O53     O    0.53167   0.14377   0.52794   1.000
    N54     N    0.51551   0.71527   0.99917   1.000
    O55     O    0.53197   0.64367   0.97214   1.000
    O56     O    0.48567   0.62900   0.03773   1.000
    O57     O    0.50084   0.77573   0.02898   1.000
    N58     N    0.29454   0.51978   0.58194   1.000
    O59     O    0.22190   0.50066   0.58351   1.000
    O60     O    0.35870   0.47420   0.52497   1.000
    O61     O    0.37482   0.54033   0.57290   1.000
    N62     N    0.70544   0.98035   0.08208   1.000
    O63     O    0.64122   0.02589   0.02504   1.000
    O64     O    0.77809   0.99955   0.08361   1.000
    O65     O    0.62514   0.95975   0.07300   1.000
    N66     N    0.98296   0.21445   0.00320   1.000
    O67     O    0.99731   0.27507   0.97342   1.000
    O68     O    0.96742   0.14259   0.03039   1.000
    O69     O    0.01305   0.12870   0.96403   1.000
    N70     N    0.29448   0.01943   0.91872   1.000
    O71     O    0.35892   0.97390   0.97545   1.000
    O72     O    0.37491   0.04005   0.92750   1.000
    O73     O    0.22178   0.00002   0.91788   1.000
    N74     N    0.79470   0.48152   0.91945   1.000
    O75     O    0.87443   0.46038   0.92882   1.000
    O76     O    0.72232   0.50093   0.91829   1.000
    O77     O    0.85934   0.52662   0.97622   1.000
    N78     N    0.94595   0.03565   0.26928   1.000
    O79     O    0.94916   0.04862   0.20529   1.000
    N80     N    0.20546   0.51875   0.08157   1.000
    O81     O    0.12555   0.53964   0.07271   1.000
    O82     O    0.27786   0.49930   0.08240   1.000
    O83     O    0.14061   0.47340   0.02530   1.000
    N84     N    0.05214   0.96511   0.73248   1.000
    O85     O    0.04986   0.95168   0.79701   1.000
    N86     N    0.01686   0.28569   0.50324   1.000
    O87     O    0.03247   0.35762   0.53042   1.000
    O88     O    0.98667   0.37143   0.46411   1.000
    O89     O    0.00253   0.22506   0.47346   1.000
    N90     N    0.05275   0.46440   0.76925   1.000
    O91     O    0.05022   0.45152   0.70527   1.000
    N92     N    0.55485   0.03691   0.76784   1.000
    O93     O    0.55185   0.04973   0.70319   1.000
    N94     N    0.94518   0.53465   0.23227   1.000
    O95     O    0.94774   0.54828   0.29694   1.000
    O96     O    0.45541   0.94463   0.17650   1.000
    O97     O    0.04159   0.94626   0.67661   1.000
    O98     O    0.04190   0.44571   0.82533   1.000
    O99     O    0.45542   0.44463   0.32362   1.000
    O100    O    0.54452   0.05535   0.82360   1.000
    O101    O    0.54453   0.55536   0.67649   1.000
    O102    O    0.95591   0.55364   0.17652   1.000
    O103    O    0.95636   0.05435   0.32537   1.000
loop_
    _geom_bond_atom_site_label_1
    _geom_bond_atom_site_label_2
    _geom_bond_distance
    _geom_bond_site_symmetry_2
    _ccdc_geom_bond_type
    N16    O17       0.98823  1_565   S
    Zr8    O17       1.98273      .   S
    N16    O18       1.10011      .   S
    Zr13   O18       2.07639  1_455   S
    N16    O19       1.42706  1_565   S
    Zr5    O19       2.42999      .   S
    N20    O21       1.00377  1_554   S
    Zr9    O21       2.02592      .   S
    N20    O22       1.12256      .   S
    Zr10   O22       2.12597      .   S
    N20    O23       1.42568  1_554   S
    Zr2    O23       2.41817      .   S
    N24    O25       1.42581      .   S
    Zr8    O25       2.41790  1_545   S
    N24    O26       1.12198      .   S
    Zr0    O26       2.12501      .   S
    N24    O27       1.00363      .   S
    Zr3    O27       2.02518      .   S
    N28    O29       1.42606  1_655   S
    Zr6    O29       2.41813      .   S
    N28    O30       1.00376      .   S
    Zr13   O30       2.02250  1_455   S
    N28    O31       1.12070      .   S
    Zr14   O31       2.12320      .   S
    N32    O33       1.43004  1_545   S
    Zr13   O33       2.43787      .   S
    N32    O34       0.98901  1_545   S
    Zr0    O34       1.98528      .   S
    N32    O35       1.09970      .   S
    Zr5    O35       2.07452  1_655   S
    N36    O37       1.11280      .   S
    Zr0    O37       1.92600      .   S
    N38    O39       1.00446  1_556   S
    Zr15   O39       2.02458  1_655   S
    N38    O40       1.42685  1_456   S
    Zr4    O40       2.42012  1_545   S
    N38    O41       1.12039      .   S
    Zr12   O41       2.12276      .   S
    N42    O43       1.11343      .   S
    Zr10   O43       1.92591      .   S
    N44    O45       1.11294      .   S
    Zr2    O45       1.92572      .   S
    N46    O47       1.43176      .   S
    Zr3    O47       2.44191      .   S
    N46    O48       1.10398      .   S
    Zr11   O48       2.08410      .   S
    N46    O49       0.99045      .   S
    Zr14   O49       1.98929      .   S
    N50    O51       1.00368      .   S
    Zr11   O51       2.02499      .   S
    N50    O52       1.42615      .   S
    Zr0    O52       2.41873  1_565   S
    N50    O53       1.12199      .   S
    Zr8    O53       2.12514      .   S
    N54    O55       1.12208      .   S
    Zr2    O55       2.12533      .   S
    N54    O56       1.42594  1_556   S
    Zr10   O56       2.41796      .   S
    N54    O57       1.00390  1_556   S
    Zr1    O57       2.02555      .   S
    N58    O59       0.99012      .   S
    Zr6    O59       1.99114      .   S
    N58    O60       1.43363      .   S
    Zr11   O60       2.44702      .   S
    N58    O61       1.10272      .   S
    Zr3    O61       2.08131      .   S
    N62    O63       1.43380  1_565   S
    Zr9    O63       2.44727  1_556   S
    N62    O64       0.99057      .   S
    Zr4    O64       1.99182  1_545   S
    N62    O65       1.10290      .   S
    Zr1    O65       2.08172      .   S
    N66    O67       1.00412  1_554   S
    Zr7    O67       2.02525  1_455   S
    N66    O68       1.12328      .   S
    Zr4    O68       2.12975      .   S
    N66    O69       1.42695  1_654   S
    Zr12   O69       2.41996  1_565   S
    N70    O71       1.43181  1_545   S
    Zr1    O71       2.44228  1_554   S
    N70    O72       1.10385      .   S
    Zr9    O72       2.08428      .   S
    N70    O73       0.99172      .   S
    Zr12   O73       1.99219  1_565   S
    N74    O75       1.09960      .   S
    Zr7    O75       2.07444  1_455   S
    N74    O76       0.98894      .   S
    Zr2    O76       1.98473      .   S
    N74    O77       1.42960      .   S
    Zr15   O77       2.43704  1_554   S
    N78    O79       1.10299      .   S
    Zr4    O79       1.91443      .   S
    N80    O81       1.09977      .   S
    Zr15   O81       2.07588  1_655   S
    N80    O82       0.98914      .   S
    Zr10   O82       1.98411      .   S
    N80    O83       1.42705      .   S
    Zr7    O83       2.43011  1_556   S
    N84    O85       1.11280      .   S
    Zr12   O85       1.92641      .   S
    N86    O87       1.12424      .   S
    Zr6    O87       2.13179      .   S
    N86    O88       1.42654  1_455   S
    Zr14   O88       2.41881      .   S
    N86    O89       1.00402      .   S
    Zr5    O89       2.02563  1_655   S
    N90    O91       1.10236      .   S
    Zr6    O91       1.91611      .   S
    N92    O93       1.11363      .   S
    Zr8    O93       1.92637      .   S
    N94    O95       1.11557      .   S
    Zr14   O95       1.92822      .   S
    Zr1    O96       1.84835      .   S
    N36    O96       0.99184      .   S
    Zr13   O97       1.85154      .   S
    N84    O97       0.99457      .   S
    Zr7    O98       1.86370      .   S
    N90    O98       0.99818      .   S
    Zr11   O99       1.84730      .   S
    N42    O99       0.99156      .   S
    Zr9    O100      1.84641      .   S
    N92    O100      0.99127      .   S
    Zr3    O101      1.84778      .   S
    N44    O101      0.99167      .   S
    Zr15   O102      1.85486      .   S
    N94    O102      0.99374      .   S
    Zr5    O103      1.86658      .   S
    N78    O103      0.99734      .   S
