# CIF file generated by openbabel 2.4.90, see http://openbabel.sf.net
data_I
_chemical_name_common ''
_cell_length_a 13.128
_cell_length_b 13.969
_cell_length_c 16.99
_cell_angle_alpha 90
_cell_angle_beta 90.046
_cell_angle_gamma 90.119
_space_group_name_H-M_alt 'P 1'
_space_group_name_Hall 'P 1'
loop_
    _symmetry_equiv_pos_as_xyz
    x,y,z
loop_
    _atom_site_label
    _atom_site_type_symbol
    _atom_site_fract_x
    _atom_site_fract_y
    _atom_site_fract_z
    _atom_site_occupancy
    Zr0     Zr   0.42651   0.97964   0.40638   1.000
    Zr1     Zr   0.47618   0.90836   0.07314   1.000
    Zr2     Zr   0.57337   0.52032   0.90639   1.000
    Zr3     Zr   0.52378   0.59164   0.57314   1.000
    Zr4     Zr   0.92757   0.01861   0.09660   1.000
    Zr5     Zr   0.97780   0.09226   0.42943   1.000
    Zr6     Zr   0.07250   0.48178   0.59663   1.000
    Zr7     Zr   0.02210   0.40781   0.92939   1.000
    Zr8     Zr   0.57316   0.02040   0.59365   1.000
    Zr9     Zr   0.52404   0.09152   0.92690   1.000
    Zr10    Zr   0.42680   0.47966   0.09366   1.000
    Zr11    Zr   0.47583   0.40846   0.42701   1.000
    Zr12    Zr   0.07213   0.98035   0.90660   1.000
    Zr13    Zr   0.02226   0.90849   0.57320   1.000
    Zr14    Zr   0.92734   0.51974   0.40685   1.000
    Zr15    Zr   0.97752   0.59162   0.07325   1.000
    N16     N    0.79429   0.98144   0.58132   1.000
    O17     O    0.72197   0.00088   0.58222   1.000
    O18     O    0.87420   0.96049   0.57249   1.000
    O19     O    0.85918   0.02675   0.52514   1.000
    N20     N    0.48467   0.28467   0.00080   1.000
    O21     O    0.49939   0.22418   0.97105   1.000
    O22     O    0.46816   0.35628   0.02787   1.000
    O23     O    0.51454   0.37094   0.96230   1.000
    N24     N    0.48450   0.78472   0.49918   1.000
    O25     O    0.51433   0.87101   0.53773   1.000
    O26     O    0.46800   0.85631   0.47213   1.000
    O27     O    0.49917   0.72426   0.52898   1.000
    N28     N    0.98349   0.71533   0.49931   1.000
    O29     O    0.01336   0.62974   0.53875   1.000
    O30     O    0.99780   0.77592   0.52912   1.000
    O31     O    0.96769   0.64355   0.47241   1.000
    N32     N    0.20520   0.01856   0.41959   1.000
    O33     O    0.14056   0.97350   0.47633   1.000
    O34     O    0.27757   0.99909   0.41838   1.000
    O35     O    0.12549   0.03974   0.42895   1.000
    N36     N    0.44496   0.96309   0.23228   1.000
    O37     O    0.46485   0.92322   0.18186   1.000
    O38     O    0.44795   0.95028   0.29688   1.000
    O39     O    0.44597   0.96603   0.17114   1.000
    N40     N    0.01687   0.78491   0.99941   1.000
    O41     O    0.00243   0.72427   0.02920   1.000
    O42     O    0.98681   0.87052   0.03879   1.000
    O43     O    0.03245   0.85664   0.97244   1.000
    N44     N    0.44512   0.46308   0.26783   1.000
    O45     O    0.44596   0.46602   0.32898   1.000
    O46     O    0.44813   0.45029   0.20319   1.000
    O47     O    0.46487   0.42324   0.31826   1.000
    N48     N    0.55496   0.53689   0.73227   1.000
    O49     O    0.53509   0.57677   0.68185   1.000
    O50     O    0.55196   0.54968   0.79688   1.000
    O51     O    0.55397   0.53396   0.67114   1.000
    N52     N    0.70534   0.48064   0.41884   1.000
    O53     O    0.64094   0.52615   0.47553   1.000
    O54     O    0.62493   0.45999   0.42760   1.000
    O55     O    0.77794   0.50007   0.41805   1.000
    N56     N    0.51514   0.21538   0.50093   1.000
    O57     O    0.50043   0.27585   0.47115   1.000
    O58     O    0.48527   0.12909   0.46236   1.000
    O59     O    0.53167   0.14377   0.52794   1.000
    N60     N    0.51551   0.71527   0.99917   1.000
    O61     O    0.53197   0.64367   0.97214   1.000
    O62     O    0.48567   0.62900   0.03773   1.000
    O63     O    0.50084   0.77573   0.02898   1.000
    N64     N    0.29454   0.51978   0.58194   1.000
    O65     O    0.22190   0.50066   0.58351   1.000
    O66     O    0.35870   0.47420   0.52497   1.000
    O67     O    0.37482   0.54033   0.57290   1.000
    N68     N    0.70544   0.98035   0.08208   1.000
    O69     O    0.64122   0.02589   0.02504   1.000
    O70     O    0.77809   0.99955   0.08361   1.000
    O71     O    0.62514   0.95975   0.07300   1.000
    N72     N    0.98296   0.21445   0.00320   1.000
    O73     O    0.99731   0.27507   0.97342   1.000
    O74     O    0.96742   0.14259   0.03039   1.000
    O75     O    0.01305   0.12870   0.96403   1.000
    N76     N    0.29448   0.01943   0.91872   1.000
    O77     O    0.35892   0.97390   0.97545   1.000
    O78     O    0.37491   0.04005   0.92750   1.000
    O79     O    0.22178   0.00002   0.91788   1.000
    N80     N    0.79470   0.48152   0.91945   1.000
    O81     O    0.87443   0.46038   0.92882   1.000
    O82     O    0.72232   0.50093   0.91829   1.000
    O83     O    0.85934   0.52662   0.97622   1.000
    N84     N    0.94595   0.03565   0.26928   1.000
    O85     O    0.96530   0.07617   0.32033   1.000
    O86     O    0.94916   0.04862   0.20529   1.000
    O87     O    0.94743   0.03254   0.33040   1.000
    N88     N    0.20546   0.51875   0.08157   1.000
    O89     O    0.12555   0.53964   0.07271   1.000
    O90     O    0.27786   0.49930   0.08240   1.000
    O91     O    0.14061   0.47340   0.02530   1.000
    N92     N    0.05214   0.96511   0.73248   1.000
    O93     O    0.03164   0.92468   0.68193   1.000
    O94     O    0.04986   0.95168   0.79701   1.000
    O95     O    0.05155   0.96784   0.67129   1.000
    N96     N    0.01686   0.28569   0.50324   1.000
    O97     O    0.03247   0.35762   0.53042   1.000
    O98     O    0.98667   0.37143   0.46411   1.000
    O99     O    0.00253   0.22506   0.47346   1.000
    N100    N    0.05275   0.46440   0.76925   1.000
    O101    O    0.05190   0.46751   0.83038   1.000
    O102    O    0.03190   0.42390   0.82029   1.000
    O103    O    0.05022   0.45152   0.70527   1.000
    N104    N    0.55485   0.03691   0.76784   1.000
    O105    O    0.53507   0.07675   0.81823   1.000
    O106    O    0.55397   0.03396   0.82897   1.000
    O107    O    0.55185   0.04973   0.70319   1.000
    N108    N    0.94518   0.53465   0.23227   1.000
    O109    O    0.94774   0.54828   0.29694   1.000
    O110    O    0.96478   0.57535   0.18182   1.000
    O111    O    0.94705   0.53193   0.17122   1.000
loop_
    _geom_bond_atom_site_label_1
    _geom_bond_atom_site_label_2
    _geom_bond_distance
    _geom_bond_site_symmetry_2
    _ccdc_geom_bond_type
    N16    O17       0.98823  1_565   S
    Zr8    O17       1.98273      .   S
    N16    O18       1.10011      .   S
    Zr13   O18       2.07639  1_455   S
    N16    O19       1.42706  1_565   S
    Zr5    O19       2.42999      .   S
    N20    O21       1.00377  1_554   S
    Zr9    O21       2.02592      .   S
    N20    O22       1.12256      .   S
    Zr10   O22       2.12597      .   S
    N20    O23       1.42568  1_554   S
    Zr2    O23       2.41817      .   S
    N24    O25       1.42581      .   S
    Zr8    O25       2.41790  1_545   S
    N24    O26       1.12198      .   S
    Zr0    O26       2.12501      .   S
    N24    O27       1.00363      .   S
    Zr3    O27       2.02518      .   S
    N28    O29       1.42606  1_655   S
    Zr6    O29       2.41813      .   S
    N28    O30       1.00376      .   S
    Zr13   O30       2.02250  1_455   S
    N28    O31       1.12070      .   S
    Zr14   O31       2.12320      .   S
    N32    O33       1.43004  1_545   S
    Zr13   O33       2.43787      .   S
    N32    O34       0.98901  1_545   S
    Zr0    O34       1.98528      .   S
    N32    O35       1.09970      .   S
    Zr5    O35       2.07452  1_655   S
    N36    O37       1.05502      .   S
    Zr1    O37       1.86493      .   S
    N36    O38       1.11280      .   S
    Zr0    O38       1.92600      .   S
    N36    O39       1.03963      .   S
    Zr1    O39       1.89242      .   S
    N40    O41       1.00446  1_556   S
    Zr15   O41       2.02458  1_655   S
    N40    O42       1.42685  1_456   S
    Zr4    O42       2.42012  1_545   S
    N40    O43       1.12039      .   S
    Zr12   O43       2.12276      .   S
    N44    O45       1.03987      .   S
    Zr11   O45       1.89061      .   S
    N44    O46       1.11343      .   S
    Zr10   O46       1.92591      .   S
    N44    O47       1.05422      .   S
    Zr11   O47       1.86466      .   S
    N48    O49       1.05476      .   S
    Zr3    O49       1.86446      .   S
    N48    O50       1.11294      .   S
    Zr2    O50       1.92572      .   S
    N48    O51       1.03954      .   S
    Zr3    O51       1.89175      .   S
    N52    O53       1.43176      .   S
    Zr3    O53       2.44191      .   S
    N52    O54       1.10398      .   S
    Zr11   O54       2.08410      .   S
    N52    O55       0.99045      .   S
    Zr14   O55       1.98929      .   S
    N56    O57       1.00368      .   S
    Zr11   O57       2.02499      .   S
    N56    O58       1.42615      .   S
    Zr0    O58       2.41873  1_565   S
    N56    O59       1.12199      .   S
    Zr8    O59       2.12514      .   S
    N60    O61       1.12208      .   S
    Zr2    O61       2.12533      .   S
    N60    O62       1.42594  1_556   S
    Zr10   O62       2.41796      .   S
    N60    O63       1.00390  1_556   S
    Zr1    O63       2.02555      .   S
    N64    O65       0.99012      .   S
    Zr6    O65       1.99114      .   S
    N64    O66       1.43363      .   S
    Zr11   O66       2.44702      .   S
    N64    O67       1.10272      .   S
    Zr3    O67       2.08131      .   S
    N68    O69       1.43380  1_565   S
    Zr9    O69       2.44727  1_556   S
    N68    O70       0.99057      .   S
    Zr4    O70       1.99182  1_545   S
    N68    O71       1.10290      .   S
    Zr1    O71       2.08172      .   S
    N72    O73       1.00412  1_554   S
    Zr7    O73       2.02525  1_455   S
    N72    O74       1.12328      .   S
    Zr4    O74       2.12975      .   S
    N72    O75       1.42695  1_654   S
    Zr12   O75       2.41996  1_565   S
    N76    O77       1.43181  1_545   S
    Zr1    O77       2.44228  1_554   S
    N76    O78       1.10385      .   S
    Zr9    O78       2.08428      .   S
    N76    O79       0.99172      .   S
    Zr12   O79       1.99219  1_565   S
    N80    O81       1.09960      .   S
    Zr7    O81       2.07444  1_455   S
    N80    O82       0.98894      .   S
    Zr2    O82       1.98473      .   S
    N80    O83       1.42960      .   S
    Zr15   O83       2.43704  1_554   S
    N84    O85       1.06597      .   S
    Zr5    O85       1.87418      .   S
    N84    O86       1.10299      .   S
    Zr4    O86       1.91443      .   S
    N84    O87       1.03954      .   S
    Zr5    O87       1.91917      .   S
    N88    O89       1.09977      .   S
    Zr15   O89       2.07588  1_655   S
    N88    O90       0.98914      .   S
    Zr10   O90       1.98411      .   S
    N88    O91       1.42705      .   S
    Zr7    O91       2.43011  1_556   S
    N92    O93       1.06207      .   S
    Zr13   O93       1.86500      .   S
    N92    O94       1.11280      .   S
    Zr12   O94       1.92641      .   S
    N92    O95       1.04033      .   S
    Zr13   O95       1.90004      .   S
    N96    O97       1.12424      .   S
    Zr6    O97       2.13179      .   S
    N96    O98       1.42654  1_455   S
    Zr14   O98       2.41881      .   S
    N96    O99       1.00402      .   S
    Zr5    O99       2.02563  1_655   S
    N100   O101      1.03953      .   S
    Zr7    O101      1.91776      .   S
    N100   O102      1.07074      .   S
    Zr7    O102      1.87172      .   S
    N100   O103      1.10236      .   S
    Zr6    O103      1.91611      .   S
    N104   O105      1.05412      .   S
    Zr9    O105      1.86355      .   S
    N104   O106      1.03944      .   S
    Zr9    O106      1.88998      .   S
    N104   O107      1.11363      .   S
    Zr8    O107      1.92637      .   S
    N108   O109      1.11557      .   S
    Zr14   O109      1.92822      .   S
    N108   O110      1.06009      .   S
    Zr15   O110      1.86621      .   S
    N108   O111      1.03835      .   S
    Zr15   O111      1.90399      .   S
