# CIF file generated by openbabel 2.4.90, see http://openbabel.sf.net
data_I
_chemical_name_common ''
_cell_length_a 13.69
_cell_length_b 16.701
_cell_length_c 16.701
_cell_angle_alpha 87.613
_cell_angle_beta 78.271
_cell_angle_gamma 78.214
_space_group_name_H-M_alt 'P 1'
_space_group_name_Hall 'P 1'
loop_
    _symmetry_equiv_pos_as_xyz
    x,y,z
loop_
    _atom_site_label
    _atom_site_type_symbol
    _atom_site_fract_x
    _atom_site_fract_y
    _atom_site_fract_z
    _atom_site_occupancy
    Ag0     Ag   0.95660   0.89289   0.38036   1.000
    Ag1     Ag   0.09267   0.60666   0.11965   1.000
    Ag2     Ag   0.59268   0.60666   0.11965   1.000
    Ag3     Ag   0.14647   0.11970   0.89290   1.000
    Ag4     Ag   0.64648   0.11970   0.89290   1.000
    Ag5     Ag   0.15294   0.38039   0.60681   1.000
    Ag6     Ag   0.65295   0.38039   0.60681   1.000
    Ag7     Ag   0.04342   0.10711   0.61961   1.000
    Ag8     Ag   0.54343   0.10711   0.61961   1.000
    Ag9     Ag   0.40735   0.39334   0.88031   1.000
    Ag10    Ag   0.90736   0.39334   0.88031   1.000
    Ag11    Ag   0.35355   0.88030   0.10702   1.000
    Ag12    Ag   0.85356   0.88030   0.10702   1.000
    Ag13    Ag   0.34707   0.61961   0.39316   1.000
    Ag14    Ag   0.84708   0.61961   0.39316   1.000
    Ag15    Ag   0.45659   0.89289   0.38036   1.000
    Ts16    Ts   0.96274   0.90159   0.42595   1.000
    Ts17    Ts   0.00375   0.86392   0.35350   1.000
    Ts18    Ts   0.90842   0.87308   0.40148   1.000
    Ts19    Ts   0.91790   0.92158   0.35212   1.000
    Ts20    Ts   0.12599   0.59807   0.07408   1.000
    Ts21    Ts   0.11203   0.63575   0.14648   1.000
    Ts22    Ts   0.04512   0.62662   0.09856   1.000
    Ts23    Ts   0.05371   0.57812   0.14792   1.000
    Ts24    Ts   0.62600   0.59807   0.07408   1.000
    Ts25    Ts   0.61204   0.63575   0.14648   1.000
    Ts26    Ts   0.54512   0.62662   0.09856   1.000
    Ts27    Ts   0.55372   0.57812   0.14792   1.000
    Ts28    Ts   0.17540   0.07411   0.90160   1.000
    Ts29    Ts   0.18033   0.14653   0.86392   1.000
    Ts30    Ts   0.10876   0.09856   0.87311   1.000
    Ts31    Ts   0.09352   0.14795   0.92158   1.000
    Ts32    Ts   0.67541   0.07411   0.90160   1.000
    Ts33    Ts   0.68033   0.14653   0.86392   1.000
    Ts34    Ts   0.60877   0.09856   0.87311   1.000
    Ts35    Ts   0.59352   0.14795   0.92158   1.000
    Ts36    Ts   0.16349   0.42598   0.59818   1.000
    Ts37    Ts   0.18566   0.35355   0.63584   1.000
    Ts38    Ts   0.09496   0.40150   0.62673   1.000
    Ts39    Ts   0.12831   0.35214   0.57819   1.000
    Ts40    Ts   0.66350   0.42598   0.59818   1.000
    Ts41    Ts   0.68567   0.35355   0.63584   1.000
    Ts42    Ts   0.59496   0.40150   0.62673   1.000
    Ts43    Ts   0.62831   0.35214   0.57819   1.000
    Ts44    Ts   0.03729   0.09840   0.57402   1.000
    Ts45    Ts   0.99628   0.13607   0.64647   1.000
    Ts46    Ts   0.08213   0.07842   0.64785   1.000
    Ts47    Ts   0.09160   0.12691   0.59849   1.000
    Ts48    Ts   0.53730   0.09840   0.57402   1.000
    Ts49    Ts   0.49628   0.13607   0.64647   1.000
    Ts50    Ts   0.58213   0.07842   0.64785   1.000
    Ts51    Ts   0.59161   0.12691   0.59849   1.000
    Ts52    Ts   0.37402   0.40193   0.92588   1.000
    Ts53    Ts   0.38799   0.36425   0.85348   1.000
    Ts54    Ts   0.44631   0.42188   0.85204   1.000
    Ts55    Ts   0.45490   0.37338   0.90141   1.000
    Ts56    Ts   0.87403   0.40193   0.92588   1.000
    Ts57    Ts   0.88800   0.36425   0.85348   1.000
    Ts58    Ts   0.94631   0.42188   0.85204   1.000
    Ts59    Ts   0.95491   0.37338   0.90141   1.000
    Ts60    Ts   0.32462   0.92589   0.09833   1.000
    Ts61    Ts   0.31969   0.85347   0.13602   1.000
    Ts62    Ts   0.40650   0.85205   0.07836   1.000
    Ts63    Ts   0.39125   0.90144   0.12683   1.000
    Ts64    Ts   0.82463   0.92589   0.09833   1.000
    Ts65    Ts   0.81970   0.85347   0.13602   1.000
    Ts66    Ts   0.90650   0.85205   0.07836   1.000
    Ts67    Ts   0.89126   0.90144   0.12683   1.000
    Ts68    Ts   0.33653   0.57402   0.40179   1.000
    Ts69    Ts   0.31435   0.64645   0.36413   1.000
    Ts70    Ts   0.37171   0.64786   0.42178   1.000
    Ts71    Ts   0.40506   0.59849   0.37324   1.000
    Ts72    Ts   0.83654   0.57402   0.40179   1.000
    Ts73    Ts   0.81436   0.64645   0.36413   1.000
    Ts74    Ts   0.87172   0.64786   0.42178   1.000
    Ts75    Ts   0.90506   0.59849   0.37324   1.000
    Ts76    Ts   0.46273   0.90159   0.42595   1.000
    Ts77    Ts   0.50374   0.86392   0.35350   1.000
    Ts78    Ts   0.40842   0.87308   0.40148   1.000
    Ts79    Ts   0.41789   0.92158   0.35212   1.000
loop_
    _geom_bond_atom_site_label_1
    _geom_bond_atom_site_label_2
    _geom_bond_distance
    _geom_bond_site_symmetry_2
    _ccdc_geom_bond_type
    Ag0    Ts16      0.80511      .   S
    Ag0    Ts17      0.79031  1_655   S
    Ag0    Ts18      0.80848      .   S
    Ag0    Ts19      0.84374      .   S
    Ag1    Ts20      0.80563      .   S
    Ag1    Ts21      0.79132      .   S
    Ag1    Ts22      0.80857      .   S
    Ag1    Ts23      0.84684      .   S
    Ag2    Ts24      0.80563      .   S
    Ag2    Ts25      0.79132      .   S
    Ag2    Ts26      0.80863      .   S
    Ag2    Ts27      0.84688      .   S
    Ag3    Ts28      0.80544      .   S
    Ag3    Ts29      0.79082      .   S
    Ag3    Ts30      0.80868      .   S
    Ag3    Ts31      0.84582      .   S
    Ag4    Ts32      0.80545      .   S
    Ag4    Ts33      0.79082      .   S
    Ag4    Ts34      0.80868      .   S
    Ag4    Ts35      0.84587      .   S
    Ag5    Ts36      0.80538      .   S
    Ag5    Ts37      0.79051      .   S
    Ag5    Ts38      0.80819      .   S
    Ag5    Ts39      0.84511      .   S
    Ag6    Ts40      0.80538      .   S
    Ag6    Ts41      0.79051      .   S
    Ag6    Ts42      0.80825      .   S
    Ag6    Ts43      0.84511      .   S
    Ag7    Ts44      0.80511      .   S
    Ag7    Ts45      0.79031  1_455   S
    Ag7    Ts46      0.84370      .   S
    Ag7    Ts47      0.80848      .   S
    Ag8    Ts48      0.80511      .   S
    Ag8    Ts49      0.79036      .   S
    Ag8    Ts50      0.84370      .   S
    Ag8    Ts51      0.80848      .   S
    Ag9    Ts52      0.80568      .   S
    Ag9    Ts53      0.79128      .   S
    Ag9    Ts54      0.84688      .   S
    Ag9    Ts55      0.80866      .   S
    Ag10   Ts56      0.80568      .   S
    Ag10   Ts57      0.79129      .   S
    Ag10   Ts58      0.84683      .   S
    Ag10   Ts59      0.80860      .   S
    Ag11   Ts60      0.80538      .   S
    Ag11   Ts61      0.79096      .   S
    Ag11   Ts62      0.84576      .   S
    Ag11   Ts63      0.80884      .   S
    Ag12   Ts64      0.80538      .   S
    Ag12   Ts65      0.79095      .   S
    Ag12   Ts66      0.84571      .   S
    Ag12   Ts67      0.80884      .   S
    Ag13   Ts68      0.80539      .   S
    Ag13   Ts69      0.79051      .   S
    Ag13   Ts70      0.84511      .   S
    Ag13   Ts71      0.80825      .   S
    Ag14   Ts72      0.80539      .   S
    Ag14   Ts73      0.79051      .   S
    Ag14   Ts74      0.84511      .   S
    Ag14   Ts75      0.80819      .   S
    Ag15   Ts76      0.80511      .   S
    Ag15   Ts77      0.79036      .   S
    Ag15   Ts78      0.80848      .   S
    Ag15   Ts79      0.84374      .   S
