# CIF file generated by openbabel 2.4.90, see http://openbabel.sf.net
data_I
_chemical_name_common ''
_cell_length_a 13.69
_cell_length_b 16.701
_cell_length_c 16.701
_cell_angle_alpha 87.613
_cell_angle_beta 78.271
_cell_angle_gamma 78.214
_space_group_name_H-M_alt 'P 1'
_space_group_name_Hall 'P 1'
loop_
    _symmetry_equiv_pos_as_xyz
    x,y,z
loop_
    _atom_site_label
    _atom_site_type_symbol
    _atom_site_fract_x
    _atom_site_fract_y
    _atom_site_fract_z
    _atom_site_occupancy
    N0      N    0.25001   0.99971   0.99984   1.000
    N1      N    0.75002   0.99971   0.99983   1.000
    N2      N    0.25001   0.50000   0.99969   1.000
    N3      N    0.50001   0.99985   0.49998   1.000
    N4      N    0.25001   0.50000   0.49998   1.000
    N5      N    0.75001   0.50000   0.49998   1.000
    N6      N    0.75002   0.50000   0.99969   1.000
    N7      N    0.00001   0.99985   0.49998   1.000
    N8      N    0.18742   0.74997   0.25000   1.000
    N9      N    0.68742   0.74997   0.25000   1.000
    N10     N    0.31260   0.25002   0.74992   1.000
    N11     N    0.81261   0.25002   0.74992   1.000
    Zr12    Zr   0.15294   0.38039   0.60681   1.000
    O13     O    0.20513   0.33773   0.65348   1.000
    O14     O    0.10547   0.27466   0.56937   1.000
    Zr15    Zr   0.59268   0.60666   0.11965   1.000
    O16     O    0.62362   0.65340   0.16230   1.000
    O17     O    0.49240   0.56929   0.22533   1.000
    Zr18    Zr   0.65295   0.38039   0.60681   1.000
    O19     O    0.60548   0.27466   0.56937   1.000
    O20     O    0.70514   0.33773   0.65348   1.000
    Zr21    Zr   0.54343   0.10711   0.61961   1.000
    O22     O    0.60959   0.06950   0.72526   1.000
    O23     O    0.46804   0.15370   0.66226   1.000
    Zr24    Zr   0.90736   0.39334   0.88031   1.000
    O25     O    0.87641   0.34660   0.83765   1.000
    O26     O    0.00763   0.43071   0.77463   1.000
    Zr27    Zr   0.85356   0.88030   0.10702   1.000
    O28     O    0.79933   0.83765   0.15364   1.000
    O29     O    0.97253   0.77463   0.06944   1.000
    Zr30    Zr   0.35355   0.88030   0.10702   1.000
    O31     O    0.47252   0.77463   0.06944   1.000
    O32     O    0.29932   0.83765   0.15364   1.000
    Zr33    Zr   0.34707   0.61961   0.39316   1.000
    O34     O    0.39455   0.72526   0.43060   1.000
    O35     O    0.29489   0.66226   0.34648   1.000
    Zr36    Zr   0.09267   0.60666   0.11965   1.000
    O37     O    0.99240   0.56929   0.22533   1.000
    O38     O    0.12362   0.65340   0.16230   1.000
    Zr39    Zr   0.64648   0.11970   0.89290   1.000
    O40     O    0.52750   0.22537   0.93035   1.000
    O41     O    0.70071   0.16234   0.84629   1.000
    Zr42    Zr   0.14647   0.11970   0.89290   1.000
    O43     O    0.20070   0.16234   0.84629   1.000
    O44     O    0.02750   0.22537   0.93035   1.000
    Zr45    Zr   0.45659   0.89289   0.38036   1.000
    O46     O    0.53198   0.84630   0.33770   1.000
    O47     O    0.39043   0.93035   0.27464   1.000
    Zr48    Zr   0.95660   0.89289   0.38036   1.000
    O49     O    0.89044   0.93035   0.27464   1.000
    O50     O    0.03198   0.84630   0.33770   1.000
    Zr51    Zr   0.04342   0.10711   0.61961   1.000
    O52     O    0.96804   0.15370   0.66226   1.000
    O53     O    0.10958   0.06950   0.72526   1.000
    Zr54    Zr   0.40735   0.39334   0.88031   1.000
    O55     O    0.37640   0.34660   0.83765   1.000
    O56     O    0.50762   0.43071   0.77463   1.000
    Zr57    Zr   0.84708   0.61961   0.39316   1.000
    O58     O    0.79490   0.66226   0.34648   1.000
    O59     O    0.89455   0.72526   0.43060   1.000
    O60     O    0.54046   0.08238   0.57719   1.000
    O61     O    0.87069   0.41787   0.92265   1.000
    O62     O    0.82932   0.92266   0.08231   1.000
    O63     O    0.32931   0.92266   0.08231   1.000
    O64     O    0.33170   0.57720   0.41775   1.000
    O65     O    0.12934   0.58212   0.07716   1.000
    O66     O    0.67072   0.07719   0.91755   1.000
    O67     O    0.17071   0.07719   0.91756   1.000
    O68     O    0.45956   0.91755   0.42278   1.000
    O69     O    0.95957   0.91755   0.42278   1.000
    O70     O    0.04045   0.08238   0.57719   1.000
    O71     O    0.37068   0.41787   0.92265   1.000
    O72     O    0.16832   0.42280   0.58222   1.000
    O73     O    0.83171   0.57720   0.41775   1.000
    O74     O    0.62934   0.58212   0.07716   1.000
    O75     O    0.66832   0.42280   0.58222   1.000
loop_
    _geom_bond_atom_site_label_1
    _geom_bond_atom_site_label_2
    _geom_bond_distance
    _geom_bond_site_symmetry_2
    _ccdc_geom_bond_type
    Zr12   O13       1.26394      .   S
    N10    O13       2.60606      .   S
    Zr12   O14       2.15806      .   S
    N7     O14       5.32180  1_565   S
    Zr15   O16       1.26502      .   S
    N9     O16       2.60810      .   S
    Zr15   O17       2.15924      .   S
    N4     O17       5.32239      .   S
    Zr18   O19       2.15807      .   S
    N3     O19       5.32185  1_565   S
    Zr18   O20       1.26394      .   S
    N11    O20       2.60606      .   S
    Zr21   O22       2.15706      .   S
    N1     O22       5.32040  1_565   S
    Zr21   O23       1.26382      .   S
    N10    O23       2.60593      .   S
    Zr24   O25       1.26511      .   S
    N11    O25       2.60842      .   S
    Zr24   O26       2.15922  1_655   S
    N4     O26       5.32239      .   S
    Zr27   O28       1.26464      .   S
    N9     O28       2.60750      .   S
    Zr27   O29       2.15951      .   S
    N2     O29       5.32473  1_456   S
    Zr30   O31       2.15955      .   S
    N6     O31       5.32478  1_556   S
    Zr30   O32       1.26464      .   S
    N8     O32       2.60750      .   S
    Zr33   O34       2.15698      .   S
    N3     O34       5.31843      .   S
    Zr33   O35       1.26408      .   S
    N8     O35       2.60648      .   S
    Zr36   O37       2.15922  1_455   S
    N5     O37       5.32238      .   S
    Zr36   O38       1.26502      .   S
    N8     O38       2.60809      .   S
    Zr39   O40       2.15917      .   S
    N2     O40       5.32402      .   S
    Zr39   O41       1.26458      .   S
    N11    O41       2.60752      .   S
    Zr42   O43       1.26458      .   S
    N10    O43       2.60753      .   S
    Zr42   O44       2.15913      .   S
    N6     O44       5.32397  1_655   S
    Zr45   O46       1.26389      .   S
    N9     O46       2.60616      .   S
    Zr45   O47       2.15779      .   S
    N0     O47       5.32306  1_556   S
    Zr48   O49       2.15780      .   S
    N1     O49       5.32311  1_556   S
    Zr48   O50       1.26385  1_655   S
    N8     O50       2.60609      .   S
    Zr51   O52       1.26376  1_455   S
    N11    O52       2.60585      .   S
    Zr51   O53       2.15708      .   S
    N0     O53       5.32045  1_565   S
    Zr54   O55       1.26511      .   S
    N10    O55       2.60842      .   S
    Zr54   O56       2.15925      .   S
    N5     O56       5.32241      .   S
    Zr57   O58       1.26407      .   S
    N9     O58       2.60647      .   S
    Zr57   O59       2.15696      .   S
    N7     O59       5.31840  1_455   S
    Zr21   O60       0.84679      .   S
    N3     O60       2.14920  1_565   S
    Zr24   O61       0.84602      .   S
    N6     O61       2.15006      .   S
    Zr27   O62       0.84648      .   S
    N1     O62       2.14971  1_556   S
    Zr30   O63       0.84647      .   S
    N0     O63       2.14968  1_556   S
    Zr33   O64       0.84622      .   S
    N4     O64       2.14855      .   S
    Zr36   O65       0.84781      .   S
    N2     O65       2.15352  1_556   S
    Zr39   O66       0.84774      .   S
    N1     O66       2.15076  1_565   S
    Zr42   O67       0.84775      .   S
    N0     O67       2.15080  1_565   S
    Zr45   O68       0.84613      .   S
    N3     O68       2.14654      .   S
    Zr48   O69       0.84612      .   S
    N7     O69       2.14650  1_455   S
    Zr51   O70       0.84678      .   S
    N7     O70       2.14915  1_565   S
    Zr54   O71       0.84601      .   S
    N2     O71       2.15004      .   S
    N4     O72       2.14866      .   S
    Zr12   O72       0.84624      .   S
    Zr57   O73       0.84623      .   S
    N5     O73       2.14860      .   S
    Zr15   O74       0.84780      .   S
    N6     O74       2.15350  1_556   S
    Zr18   O75       0.84623      .   S
    N5     O75       2.14862      .   S
