# CIF file generated by openbabel 2.4.90, see http://openbabel.sf.net
data_I
_chemical_name_common ''
_cell_length_a 13.69
_cell_length_b 16.701
_cell_length_c 16.701
_cell_angle_alpha 87.613
_cell_angle_beta 78.271
_cell_angle_gamma 78.214
_space_group_name_H-M_alt 'P 1'
_space_group_name_Hall 'P 1'
loop_
    _symmetry_equiv_pos_as_xyz
    x,y,z
loop_
    _atom_site_label
    _atom_site_type_symbol
    _atom_site_fract_x
    _atom_site_fract_y
    _atom_site_fract_z
    _atom_site_occupancy
    C0      C    0.45659   0.89289   0.38036   1.000
    C1      C    0.95660   0.89289   0.38036   1.000
    C2      C    0.09267   0.60666   0.11965   1.000
    C3      C    0.59268   0.60666   0.11965   1.000
    C4      C    0.14647   0.11970   0.89290   1.000
    C5      C    0.64648   0.11970   0.89290   1.000
    C6      C    0.15294   0.38039   0.60681   1.000
    C7      C    0.65295   0.38039   0.60681   1.000
    C8      C    0.04342   0.10711   0.61961   1.000
    C9      C    0.54343   0.10711   0.61961   1.000
    C10     C    0.40735   0.39334   0.88031   1.000
    C11     C    0.90736   0.39334   0.88031   1.000
    C12     C    0.35355   0.88030   0.10702   1.000
    C13     C    0.85356   0.88030   0.10702   1.000
    C14     C    0.34707   0.61961   0.39316   1.000
    C15     C    0.84708   0.61961   0.39316   1.000
    C16     C    0.36066   0.77781   0.64022   1.000
    C17     C    0.86067   0.77781   0.64022   1.000
    C18     C    0.29635   0.87308   0.60867   1.000
    C19     C    0.79635   0.87308   0.60867   1.000
    C20     C    0.47639   0.86609   0.63434   1.000
    C21     C    0.97640   0.86609   0.63434   1.000
    C22     C    0.02508   0.79767   0.55067   1.000
    C23     C    0.52509   0.79767   0.55067   1.000
    C24     C    0.32345   0.98675   0.54940   1.000
    C25     C    0.82346   0.98675   0.54940   1.000
    C26     C    0.40879   0.00948   0.60891   1.000
    C27     C    0.90880   0.00948   0.60891   1.000
    C28     C    0.08924   0.94922   0.57294   1.000
    C29     C    0.58925   0.94922   0.57294   1.000
    C30     C    0.13518   0.87929   0.49038   1.000
    C31     C    0.63519   0.87929   0.49038   1.000
    C32     C    0.11138   0.71949   0.39469   1.000
    C33     C    0.61139   0.71949   0.39469   1.000
    C34     C    0.18762   0.79580   0.39068   1.000
    C35     C    0.68763   0.79580   0.39068   1.000
    C36     C    0.01674   0.71319   0.29117   1.000
    C37     C    0.51675   0.71319   0.29117   1.000
    C38     C    0.06869   0.72186   0.85986   1.000
    C39     C    0.56869   0.72187   0.85986   1.000
    C40     C    0.03632   0.62659   0.89159   1.000
    C41     C    0.53632   0.62659   0.89150   1.000
    C42     C    0.22561   0.63401   0.86584   1.000
    C43     C    0.72561   0.63401   0.86580   1.000
    C44     C    0.19845   0.70233   0.94958   1.000
    C45     C    0.69846   0.70233   0.94958   1.000
    C46     C    0.09158   0.51262   0.95032   1.000
    C47     C    0.59159   0.51262   0.95030   1.000
    C48     C    0.21786   0.49052   0.89096   1.000
    C49     C    0.71787   0.49052   0.89096   1.000
    C50     C    0.34967   0.55128   0.92723   1.000
    C51     C    0.84968   0.55129   0.92723   1.000
    C52     C    0.31938   0.62107   0.00000   1.000
    C53     C    0.81938   0.62107   0.00000   1.000
    C54     C    0.16819   0.78047   0.10526   1.000
    C55     C    0.66820   0.78048   0.10526   1.000
    C56     C    0.28046   0.70416   0.10937   1.000
    C57     C    0.78047   0.70416   0.10937   1.000
    C58     C    0.01895   0.78676   0.20862   1.000
    C59     C    0.51895   0.78676   0.20862   1.000
    C60     C    0.17990   0.85985   0.77785   1.000
    C61     C    0.67991   0.85985   0.77785   1.000
    C62     C    0.10007   0.89131   0.87314   1.000
    C63     C    0.60007   0.89131   0.87310   1.000
    C64     C    0.29287   0.86577   0.86599   1.000
    C65     C    0.79288   0.86577   0.86599   1.000
    C66     C    0.29974   0.94952   0.79765   1.000
    C67     C    0.79975   0.94952   0.79765   1.000
    C68     C    0.09799   0.95049   0.98690   1.000
    C69     C    0.59800   0.95049   0.98689   1.000
    C70     C    0.21309   0.89103   0.00943   1.000
    C71     C    0.71310   0.89102   0.00943   1.000
    C72     C    0.37538   0.92712   0.94905   1.000
    C73     C    0.87538   0.92712   0.94905   1.000
    C74     C    0.38005   0.00000   0.87920   1.000
    C75     C    0.88006   0.00000   0.87920   1.000
    C76     C    0.30862   0.10529   0.71946   1.000
    C77     C    0.80863   0.10529   0.71946   1.000
    C78     C    0.38286   0.10932   0.79582   1.000
    C79     C    0.88287   0.10932   0.79582   1.000
    C80     C    0.16245   0.20876   0.71310   1.000
    C81     C    0.66246   0.20876   0.71310   1.000
    C82     C    0.99985   0.64027   0.72198   1.000
    C83     C    0.49986   0.64027   0.72198   1.000
    C84     C    0.48298   0.60856   0.62678   1.000
    C85     C    0.98299   0.60856   0.62678   1.000
    C86     C    0.15950   0.63439   0.63378   1.000
    C87     C    0.65951   0.63439   0.63378   1.000
    C88     C    0.17429   0.55071   0.70220   1.000
    C89     C    0.67430   0.55071   0.70222   1.000
    C90     C    0.06685   0.54959   0.51300   1.000
    C91     C    0.56686   0.54959   0.51302   1.000
    C92     C    0.16354   0.60900   0.49044   1.000
    C93     C    0.66354   0.60900   0.49044   1.000
    C94     C    0.31387   0.57287   0.55087   1.000
    C95     C    0.81388   0.57287   0.55087   1.000
    C96     C    0.32498   0.49027   0.62078   1.000
    C97     C    0.82498   0.49027   0.62078   1.000
    C98     C    0.22134   0.39477   0.78039   1.000
    C99     C    0.72135   0.39477   0.78039   1.000
    C100    C    0.33560   0.39071   0.70416   1.000
    C101    C    0.83561   0.39071   0.70416   1.000
    C102    C    0.12360   0.29133   0.78664   1.000
    C103    C    0.62361   0.29133   0.78664   1.000
    C104    C    0.13936   0.22219   0.35970   1.000
    C105    C    0.63936   0.22219   0.35970   1.000
    C106    C    0.20367   0.12692   0.39130   1.000
    C107    C    0.70368   0.12692   0.39130   1.000
    C108    C    0.02363   0.13391   0.36563   1.000
    C109    C    0.52364   0.13391   0.36563   1.000
    C110    C    0.47494   0.20233   0.44930   1.000
    C111    C    0.97494   0.20233   0.44930   1.000
    C112    C    0.17657   0.01325   0.45057   1.000
    C113    C    0.67658   0.01325   0.45057   1.000
    C114    C    0.09123   0.99052   0.39106   1.000
    C115    C    0.59123   0.99052   0.39106   1.000
    C116    C    0.41078   0.05078   0.42703   1.000
    C117    C    0.91078   0.05078   0.42703   1.000
    C118    C    0.36483   0.12070   0.50959   1.000
    C119    C    0.86484   0.12070   0.50959   1.000
    C120    C    0.38864   0.28051   0.60528   1.000
    C121    C    0.88865   0.28051   0.60528   1.000
    C122    C    0.31240   0.20420   0.60920   1.000
    C123    C    0.81241   0.20420   0.60920   1.000
    C124    C    0.48328   0.28681   0.70880   1.000
    C125    C    0.98328   0.28680   0.70880   1.000
    C126    C    0.43133   0.27813   0.14011   1.000
    C127    C    0.93134   0.27813   0.14011   1.000
    C128    C    0.46370   0.37341   0.10838   1.000
    C129    C    0.96371   0.37341   0.10838   1.000
    C130    C    0.27441   0.36599   0.13413   1.000
    C131    C    0.77442   0.36599   0.13413   1.000
    C132    C    0.30157   0.29767   0.05030   1.000
    C133    C    0.80157   0.29767   0.05038   1.000
    C134    C    0.40843   0.48738   0.04965   1.000
    C135    C    0.90844   0.48738   0.04965   1.000
    C136    C    0.28216   0.50948   0.10901   1.000
    C137    C    0.78216   0.50948   0.10901   1.000
    C138    C    0.15035   0.44871   0.07274   1.000
    C139    C    0.65036   0.44871   0.07274   1.000
    C140    C    0.18064   0.37893   0.99005   1.000
    C141    C    0.68065   0.37893   0.99005   1.000
    C142    C    0.33183   0.21952   0.89470   1.000
    C143    C    0.83183   0.21952   0.89470   1.000
    C144    C    0.21956   0.29584   0.89060   1.000
    C145    C    0.71957   0.29584   0.89060   1.000
    C146    C    0.48107   0.21324   0.79135   1.000
    C147    C    0.98108   0.21324   0.79135   1.000
    C148    C    0.32011   0.14015   0.22212   1.000
    C149    C    0.82012   0.14015   0.22212   1.000
    C150    C    0.39995   0.10869   0.12683   1.000
    C151    C    0.89996   0.10869   0.12683   1.000
    C152    C    0.20715   0.13423   0.13398   1.000
    C153    C    0.70715   0.13423   0.13398   1.000
    C154    C    0.20028   0.05048   0.20232   1.000
    C155    C    0.70028   0.05048   0.20232   1.000
    C156    C    0.40202   0.04951   0.01307   1.000
    C157    C    0.90203   0.04951   0.01307   1.000
    C158    C    0.28693   0.10897   0.99050   1.000
    C159    C    0.78694   0.10897   0.99054   1.000
    C160    C    0.12464   0.07288   0.05091   1.000
    C161    C    0.62465   0.07288   0.05091   1.000
    C162    C    0.11997   0.99024   0.12077   1.000
    C163    C    0.61997   0.99024   0.12070   1.000
    C164    C    0.19140   0.89471   0.28051   1.000
    C165    C    0.69141   0.89471   0.28051   1.000
    C166    C    0.11716   0.89067   0.20415   1.000
    C167    C    0.61717   0.89067   0.20415   1.000
    C168    C    0.33757   0.79123   0.28687   1.000
    C169    C    0.83758   0.79123   0.28687   1.000
    C170    C    0.50017   0.35973   0.27799   1.000
    C171    C    0.00000   0.35973   0.27799   1.000
    C172    C    0.01704   0.39144   0.37318   1.000
    C173    C    0.51705   0.39144   0.37318   1.000
    C174    C    0.34052   0.36561   0.36610   1.000
    C175    C    0.84053   0.36561   0.36610   1.000
    C176    C    0.32573   0.44929   0.29775   1.000
    C177    C    0.82573   0.44929   0.29775   1.000
    C178    C    0.43317   0.45041   0.48695   1.000
    C179    C    0.93318   0.45041   0.48695   1.000
    C180    C    0.33648   0.39100   0.50953   1.000
    C181    C    0.83649   0.39100   0.50953   1.000
    C182    C    0.18615   0.42712   0.44910   1.000
    C183    C    0.68615   0.42712   0.44910   1.000
    C184    C    0.17504   0.50972   0.37918   1.000
    C185    C    0.67505   0.50972   0.37918   1.000
    C186    C    0.27868   0.60523   0.21958   1.000
    C187    C    0.77868   0.60523   0.21958   1.000
    C188    C    0.16441   0.60929   0.29581   1.000
    C189    C    0.66442   0.60929   0.29581   1.000
    C190    C    0.37641   0.70867   0.21333   1.000
    C191    C    0.87642   0.70867   0.21333   1.000
    C192    C    0.36140   0.82242   0.58991   1.000
    C193    C    0.86141   0.82242   0.58991   1.000
    C194    C    0.46361   0.84940   0.57440   1.000
    C195    C    0.96362   0.84940   0.57440   1.000
    C196    C    0.40155   0.99504   0.54636   1.000
    C197    C    0.90156   0.99504   0.54636   1.000
    C198    C    0.07909   0.93478   0.51124   1.000
    C199    C    0.57910   0.93478   0.51124   1.000
    C200    C    0.15952   0.75576   0.35429   1.000
    C201    C    0.65953   0.75576   0.35429   1.000
    C202    C    0.06672   0.67734   0.91025   1.000
    C203    C    0.56673   0.67735   0.91025   1.000
    C204    C    0.17471   0.65054   0.92579   1.000
    C205    C    0.67472   0.65054   0.92579   1.000
    C206    C    0.17223   0.50469   0.95349   1.000
    C207    C    0.67224   0.50469   0.95349   1.000
    C208    C    0.30164   0.56549   0.98894   1.000
    C209    C    0.80165   0.56549   0.98894   1.000
    C210    C    0.21430   0.74419   0.14570   1.000
    C211    C    0.71431   0.74419   0.14570   1.000
    C212    C    0.15563   0.91016   0.82246   1.000
    C213    C    0.65564   0.91016   0.82246   1.000
    C214    C    0.25018   0.92573   0.84930   1.000
    C215    C    0.75019   0.92573   0.84930   1.000
    C216    C    0.17462   0.95359   0.99510   1.000
    C217    C    0.67463   0.95358   0.99510   1.000
    C218    C    0.33448   0.98884   0.93469   1.000
    C219    C    0.83449   0.98884   0.93469   1.000
    C220    C    0.33663   0.14570   0.75576   1.000
    C221    C    0.83664   0.14571   0.75576   1.000
    C222    C    0.02287   0.58989   0.67745   1.000
    C223    C    0.52288   0.58989   0.67745   1.000
    C224    C    0.13850   0.57443   0.65040   1.000
    C225    C    0.63851   0.57443   0.65040   1.000
    C226    C    0.14909   0.54646   0.50483   1.000
    C227    C    0.64909   0.54646   0.50483   1.000
    C228    C    0.29655   0.51117   0.56527   1.000
    C229    C    0.79656   0.51117   0.56527   1.000
    C230    C    0.28756   0.35435   0.74417   1.000
    C231    C    0.78757   0.35434   0.74417   1.000
    C232    C    0.13862   0.17758   0.41006   1.000
    C233    C    0.63863   0.17758   0.41006   1.000
    C234    C    0.03641   0.15060   0.42557   1.000
    C235    C    0.53641   0.15060   0.42557   1.000
    C236    C    0.09847   0.00000   0.45361   1.000
    C237    C    0.59847   0.00000   0.45361   1.000
    C238    C    0.42092   0.06522   0.48873   1.000
    C239    C    0.92093   0.06522   0.48873   1.000
    C240    C    0.34050   0.24424   0.64567   1.000
    C241    C    0.84051   0.24424   0.64567   1.000
    C242    C    0.43330   0.32265   0.08970   1.000
    C243    C    0.93330   0.32265   0.08971   1.000
    C244    C    0.32531   0.34946   0.07418   1.000
    C245    C    0.82532   0.34946   0.07418   1.000
    C246    C    0.32778   0.49530   0.04640   1.000
    C247    C    0.82779   0.49530   0.04647   1.000
    C248    C    0.19837   0.43451   0.01100   1.000
    C249    C    0.69838   0.43451   0.01102   1.000
    C250    C    0.28572   0.25580   0.85427   1.000
    C251    C    0.78572   0.25580   0.85427   1.000
    C252    C    0.34439   0.08984   0.17751   1.000
    C253    C    0.84440   0.08984   0.17751   1.000
    C254    C    0.24983   0.07427   0.15059   1.000
    C255    C    0.74984   0.07427   0.15059   1.000
    C256    C    0.32540   0.04641   0.00000   1.000
    C257    C    0.82541   0.04641   0.00000   1.000
    C258    C    0.16554   0.01115   0.06528   1.000
    C259    C    0.66554   0.01115   0.06528   1.000
    C260    C    0.16338   0.85429   0.24420   1.000
    C261    C    0.66339   0.85429   0.24421   1.000
    C262    C    0.47715   0.41010   0.32252   1.000
    C263    C    0.97716   0.41010   0.32252   1.000
    C264    C    0.36151   0.42557   0.34948   1.000
    C265    C    0.86152   0.42557   0.34948   1.000
    C266    C    0.35093   0.45354   0.49514   1.000
    C267    C    0.85094   0.45354   0.49514   1.000
    C268    C    0.20347   0.48882   0.43470   1.000
    C269    C    0.70348   0.48883   0.43470   1.000
    C270    C    0.21246   0.64565   0.25580   1.000
    C271    C    0.71246   0.64565   0.25580   1.000
    C272    C    0.06327   0.74997   0.24992   1.000
    C273    C    0.56328   0.74997   0.24992   1.000
    C274    C    0.18845   0.25004   0.74900   1.000
    C275    C    0.68846   0.25004   0.74900   1.000
    C276    C    0.43675   0.25002   0.75005   1.000
    C277    C    0.93676   0.25002   0.75005   1.000
    C278    C    0.31156   0.74996   0.25007   1.000
    C279    C    0.81157   0.74996   0.25007   1.000
    C280    C    0.33074   0.77056   0.50825   1.000
    C281    C    0.83075   0.77056   0.50825   1.000
    C282    C    0.46962   0.72936   0.99178   1.000
    C283    C    0.96963   0.72936   0.99178   1.000
    C284    C    0.08407   0.99174   0.77064   1.000
    C285    C    0.58408   0.99174   0.77060   1.000
    C286    C    0.46662   0.50823   0.72945   1.000
    C287    C    0.96663   0.50823   0.72945   1.000
    C288    C    0.16928   0.22944   0.49171   1.000
    C289    C    0.66928   0.22944   0.49171   1.000
    C290    C    0.03040   0.27063   0.00818   1.000
    C291    C    0.53041   0.27063   0.00818   1.000
    C292    C    0.41595   0.00825   0.22933   1.000
    C293    C    0.91596   0.00825   0.22933   1.000
    C294    C    0.03340   0.49177   0.27050   1.000
    C295    C    0.53340   0.49177   0.27050   1.000
    C296    C    0.47500   0.91900   0.51714   1.000
    C297    C    0.97501   0.91900   0.51714   1.000
    C298    C    0.09804   0.80600   0.29978   1.000
    C299    C    0.59805   0.80600   0.29978   1.000
    C300    C    0.19264   0.58089   0.98295   1.000
    C301    C    0.69265   0.58089   0.98295   1.000
    C302    C    0.15074   0.69394   0.20014   1.000
    C303    C    0.65075   0.69394   0.20014   1.000
    C304    C    0.23325   0.98292   0.91901   1.000
    C305    C    0.73326   0.98292   0.91901   1.000
    C306    C    0.24804   0.20019   0.80596   1.000
    C307    C    0.74805   0.20019   0.80596   1.000
    C308    C    0.18458   0.51716   0.58092   1.000
    C309    C    0.68459   0.51716   0.58092   1.000
    C310    C    0.25111   0.29986   0.69391   1.000
    C311    C    0.75112   0.29986   0.69391   1.000
    C312    C    0.02502   0.08100   0.48283   1.000
    C313    C    0.52503   0.08100   0.48283   1.000
    C314    C    0.40198   0.19400   0.70019   1.000
    C315    C    0.90199   0.19400   0.70019   1.000
    C316    C    0.30738   0.41911   0.01702   1.000
    C317    C    0.80738   0.41911   0.01702   1.000
    C318    C    0.34927   0.30605   0.79983   1.000
    C319    C    0.84928   0.30605   0.79983   1.000
    C320    C    0.26677   0.01707   0.08096   1.000
    C321    C    0.76677   0.01707   0.08096   1.000
    C322    C    0.25198   0.79981   0.19401   1.000
    C323    C    0.75199   0.79981   0.19401   1.000
    C324    C    0.31543   0.48284   0.41905   1.000
    C325    C    0.81544   0.48284   0.41905   1.000
    C326    C    0.24891   0.70013   0.30606   1.000
    C327    C    0.74892   0.70013   0.30606   1.000
    C328    C    0.31206   0.83348   0.44373   1.000
    C329    C    0.81207   0.83348   0.44373   1.000
    C330    C    0.23794   0.73992   0.54494   1.000
    C331    C    0.73794   0.73992   0.54494   1.000
    C332    C    0.42099   0.70436   0.47903   1.000
    C333    C    0.92100   0.70436   0.47903   1.000
    C334    C    0.45001   0.66654   0.05637   1.000
    C335    C    0.95002   0.66654   0.05637   1.000
    C336    C    0.37986   0.76006   0.95498   1.000
    C337    C    0.87986   0.76006   0.95498   1.000
    C338    C    0.01241   0.79555   0.02103   1.000
    C339    C    0.51241   0.79555   0.02103   1.000
    C340    C    0.03335   0.05627   0.83353   1.000
    C341    C    0.53336   0.05627   0.83353   1.000
    C342    C    0.00947   0.95496   0.74013   1.000
    C343    C    0.50947   0.95496   0.74013   1.000
    C344    C    0.15953   0.02103   0.70433   1.000
    C345    C    0.65954   0.02103   0.70433   1.000
    C346    C    0.47899   0.44373   0.66658   1.000
    C347    C    0.97900   0.44373   0.66658   1.000
    C348    C    0.35861   0.54498   0.76026   1.000
    C349    C    0.85862   0.54498   0.76026   1.000
    C350    C    0.02422   0.47895   0.79550   1.000
    C351    C    0.52423   0.47895   0.79550   1.000
    C352    C    0.18796   0.16652   0.55624   1.000
    C353    C    0.68796   0.16652   0.55624   1.000
    C354    C    0.26208   0.26008   0.45503   1.000
    C355    C    0.76209   0.26008   0.45503   1.000
    C356    C    0.07903   0.29564   0.52094   1.000
    C357    C    0.57904   0.29564   0.52094   1.000
    C358    C    0.05001   0.33346   0.94360   1.000
    C359    C    0.55002   0.33346   0.94360   1.000
    C360    C    0.12016   0.23994   0.04499   1.000
    C361    C    0.62017   0.23994   0.04499   1.000
    C362    C    0.48761   0.20445   0.97894   1.000
    C363    C    0.98762   0.20445   0.97894   1.000
    C364    C    0.46667   0.94373   0.16644   1.000
    C365    C    0.96668   0.94373   0.16644   1.000
    C366    C    0.49055   0.04504   0.25984   1.000
    C367    C    0.99056   0.04504   0.25984   1.000
    C368    C    0.34049   0.97897   0.29563   1.000
    C369    C    0.84050   0.97896   0.29563   1.000
    C370    C    0.02103   0.55627   0.33339   1.000
    C371    C    0.52104   0.55627   0.33339   1.000
    C372    C    0.14141   0.45502   0.23971   1.000
    C373    C    0.64142   0.45502   0.23971   1.000
    C374    C    0.47580   0.52105   0.20446   1.000
    C375    C    0.97581   0.52105   0.20446   1.000
    O376    O    0.81052   0.59328   0.99447   1.000
    O377    O    0.31051   0.59328   0.99447   1.000
    O378    O    0.36371   0.04796   0.00654   1.000
    O379    O    0.29608   0.03174   0.04048   1.000
    O380    O    0.32994   0.01763   0.96735   1.000
    O381    O    0.30616   0.07769   0.99525   1.000
    O382    O    0.86372   0.04796   0.00654   1.000
    O383    O    0.79609   0.03174   0.04048   1.000
    O384    O    0.82995   0.01763   0.96735   1.000
    O385    O    0.80617   0.07769   0.99527   1.000
    O386    O    0.57529   0.25529   0.02658   1.000
    O387    O    0.48185   0.29664   0.04894   1.000
    O388    O    0.54021   0.30205   0.97589   1.000
    O389    O    0.50901   0.23754   0.99356   1.000
    O390    O    0.07528   0.25529   0.02658   1.000
    O391    O    0.98185   0.29664   0.04894   1.000
    O392    O    0.04020   0.30205   0.97589   1.000
    O393    O    0.00901   0.23754   0.99356   1.000
    O394    O    0.69386   0.92230   0.00227   1.000
    O395    O    0.19385   0.92230   0.00227   1.000
    O396    O    0.25288   0.42681   0.01401   1.000
    O397    O    0.17436   0.44161   0.04187   1.000
    O398    O    0.18530   0.46960   0.98224   1.000
    O399    O    0.18951   0.40672   0.00053   1.000
    O400    O    0.75288   0.42681   0.01402   1.000
    O401    O    0.67437   0.44161   0.04188   1.000
    O402    O    0.68531   0.46960   0.98226   1.000
    O403    O    0.68952   0.40672   0.00054   1.000
    O404    O    0.31758   0.45721   0.03171   1.000
    O405    O    0.31634   0.38428   0.04560   1.000
    O406    O    0.35736   0.40623   0.94866   1.000
    O407    O    0.81759   0.45721   0.03175   1.000
    O408    O    0.81635   0.38428   0.04560   1.000
    O409    O    0.85737   0.40623   0.94866   1.000
    O410    O    0.43298   0.83792   0.06402   1.000
    O411    O    0.49102   0.76246   0.00641   1.000
    O412    O    0.93298   0.83792   0.06402   1.000
    O413    O    0.99102   0.76246   0.00641   1.000
    O414    O    0.36811   0.49134   0.04802   1.000
    O415    O    0.30497   0.50239   0.07771   1.000
    O416    O    0.31471   0.53040   0.01767   1.000
    O417    O    0.86812   0.49134   0.04806   1.000
    O418    O    0.80498   0.50239   0.07774   1.000
    O419    O    0.81472   0.53040   0.01771   1.000
    O420    O    0.31344   0.32356   0.06224   1.000
    O421    O    0.81345   0.32356   0.06228   1.000
    O422    O    0.64510   0.04201   0.05810   1.000
    O423    O    0.14509   0.04202   0.05810   1.000
    O424    O    0.52134   0.63660   0.08801   1.000
    O425    O    0.45981   0.69795   0.02407   1.000
    O426    O    0.02134   0.63660   0.08801   1.000
    O427    O    0.95982   0.69795   0.02407   1.000
    O428    O    0.21615   0.01411   0.07312   1.000
    O429    O    0.14275   0.00069   0.09302   1.000
    O430    O    0.17008   0.98237   0.03019   1.000
    O431    O    0.71616   0.01411   0.07312   1.000
    O432    O    0.64276   0.00069   0.09299   1.000
    O433    O    0.67008   0.98237   0.03019   1.000
    O434    O    0.87931   0.33605   0.08195   1.000
    O435    O    0.79987   0.35772   0.10415   1.000
    O436    O    0.37930   0.33605   0.08194   1.000
    O437    O    0.29986   0.35772   0.10415   1.000
    O438    O    0.31016   0.94869   0.09399   1.000
    O439    O    0.25830   0.04567   0.11578   1.000
    O440    O    0.81016   0.94869   0.09399   1.000
    O441    O    0.75831   0.04567   0.11578   1.000
    O442    O    0.44850   0.34803   0.09904   1.000
    O443    O    0.43231   0.30039   0.11491   1.000
    O444    O    0.94851   0.34803   0.09904   1.000
    O445    O    0.93232   0.30039   0.11491   1.000
    O446    O    0.19125   0.76233   0.12548   1.000
    O447    O    0.69125   0.76233   0.12548   1.000
    O448    O    0.91012   0.91201   0.13673   1.000
    O449    O    0.80277   0.84005   0.15052   1.000
    O450    O    0.41011   0.91201   0.13673   1.000
    O451    O    0.30276   0.84005   0.15052   1.000
    O452    O    0.74739   0.72418   0.12753   1.000
    O453    O    0.24738   0.72418   0.12753   1.000
    O454    O    0.62172   0.65030   0.15990   1.000
    O455    O    0.53424   0.56385   0.16206   1.000
    O456    O    0.64266   0.59377   0.05130   1.000
    O457    O    0.12171   0.65030   0.15990   1.000
    O458    O    0.03424   0.56385   0.16206   1.000
    O459    O    0.14266   0.59377   0.05130   1.000
    O460    O    0.37217   0.09926   0.15217   1.000
    O461    O    0.87218   0.09926   0.15217   1.000
    O462    O    0.22849   0.10425   0.14228   1.000
    O463    O    0.72850   0.10425   0.14228   1.000
    O464    O    0.73315   0.77200   0.16985   1.000
    O465    O    0.68253   0.71907   0.17292   1.000
    O466    O    0.23314   0.77200   0.16985   1.000
    O467    O    0.18252   0.71907   0.17292   1.000
    O468    O    0.29711   0.08206   0.16405   1.000
    O469    O    0.22506   0.06237   0.17646   1.000
    O470    O    0.79712   0.08206   0.16405   1.000
    O471    O    0.72506   0.06237   0.17646   1.000
    O472    O    0.44131   0.97599   0.19789   1.000
    O473    O    0.94132   0.97599   0.19789   1.000
    O474    O    0.83226   0.11499   0.19982   1.000
    O475    O    0.88018   0.04905   0.20342   1.000
    O476    O    0.33225   0.11499   0.19982   1.000
    O477    O    0.38017   0.04905   0.20342   1.000
    O478    O    0.70769   0.82705   0.21911   1.000
    O479    O    0.78178   0.77489   0.22204   1.000
    O480    O    0.20768   0.82705   0.21910   1.000
    O481    O    0.28177   0.77489   0.22204   1.000
    O482    O    0.10701   0.72196   0.22503   1.000
    O483    O    0.18160   0.66980   0.22797   1.000
    O484    O    0.60702   0.72196   0.22503   1.000
    O485    O    0.68161   0.66980   0.22797   1.000
    O486    O    0.64028   0.87248   0.22418   1.000
    O487    O    0.14027   0.87248   0.22417   1.000
    O488    O    0.50460   0.50641   0.23748   1.000
    O489    O    0.00460   0.50641   0.23748   1.000
    O490    O    0.04111   0.76836   0.22927   1.000
    O491    O    0.54112   0.76837   0.22927   1.000
    O492    O    0.34399   0.72932   0.23170   1.000
    O493    O    0.84400   0.72932   0.23170   1.000
    O494    O    0.24557   0.62544   0.23769   1.000
    O495    O    0.74557   0.62544   0.23769   1.000
    O496    O    0.45325   0.02665   0.24459   1.000
    O497    O    0.37822   0.99361   0.26248   1.000
    O498    O    0.95326   0.02665   0.24459   1.000
    O499    O    0.87823   0.99361   0.26248   1.000
    O500    O    0.08740   0.47339   0.25511   1.000
    O501    O    0.58741   0.47339   0.25511   1.000
    O502    O    0.17739   0.87450   0.26235   1.000
    O503    O    0.13071   0.83015   0.27199   1.000
    O504    O    0.67740   0.87450   0.26236   1.000
    O505    O    0.63072   0.83015   0.27200   1.000
    O506    O    0.54001   0.73158   0.27054   1.000
    O507    O    0.58066   0.77799   0.27485   1.000
    O508    O    0.04001   0.73158   0.27054   1.000
    O509    O    0.08065   0.77799   0.27485   1.000
    O510    O    0.32457   0.77060   0.26847   1.000
    O511    O    0.28024   0.72505   0.27807   1.000
    O512    O    0.82457   0.77060   0.26847   1.000
    O513    O    0.78025   0.72505   0.27807   1.000
    O514    O    0.18843   0.62747   0.27581   1.000
    O515    O    0.23068   0.67289   0.28093   1.000
    O516    O    0.68844   0.62747   0.27581   1.000
    O517    O    0.73069   0.67289   0.28093   1.000
    O518    O    0.50528   0.45094   0.29651   1.000
    O519    O    0.52722   0.52402   0.30195   1.000
    O520    O    0.00528   0.45094   0.29651   1.000
    O521    O    0.02721   0.52402   0.30195   1.000
    O522    O    0.48866   0.38492   0.30026   1.000
    O523    O    0.98858   0.38492   0.30026   1.000
    O524    O    0.39854   0.93593   0.33799   1.000
    O525    O    0.89855   0.93593   0.33799   1.000
    O526    O    0.84363   0.43743   0.32361   1.000
    O527    O    0.34362   0.43743   0.32361   1.000
    O528    O    0.62879   0.78088   0.32704   1.000
    O529    O    0.52732   0.84944   0.34007   1.000
    O530    O    0.12878   0.78088   0.32704   1.000
    O531    O    0.02732   0.84944   0.34007   1.000
    O532    O    0.70422   0.72795   0.33017   1.000
    O533    O    0.79800   0.65987   0.34961   1.000
    O534    O    0.20422   0.72795   0.33017   1.000
    O535    O    0.29799   0.65987   0.34961   1.000
    O536    O    0.91934   0.41784   0.33600   1.000
    O537    O    0.99710   0.40077   0.34785   1.000
    O538    O    0.41933   0.41784   0.33600   1.000
    O539    O    0.49710   0.40077   0.34785   1.000
    O540    O    0.43406   0.58794   0.36328   1.000
    O541    O    0.93406   0.58794   0.36328   1.000
    O542    O    0.85102   0.39559   0.35779   1.000
    O543    O    0.83848   0.45420   0.38427   1.000
    O544    O    0.35102   0.39559   0.35779   1.000
    O545    O    0.33847   0.45420   0.38427   1.000
    O546    O    0.67358   0.77578   0.37249   1.000
    O547    O    0.63546   0.73762   0.37449   1.000
    O548    O    0.17357   0.77578   0.37249   1.000
    O549    O    0.13545   0.73762   0.37449   1.000
    O550    O    0.13899   0.19988   0.38488   1.000
    O551    O    0.63900   0.19988   0.38488   1.000
    O552    O    0.53003   0.14225   0.39560   1.000
    O553    O    0.03002   0.14225   0.39560   1.000
    O554    O    0.18926   0.49927   0.40694   1.000
    O555    O    0.68926   0.49927   0.40694   1.000
    O556    O    0.38433   0.86318   0.41204   1.000
    O557    O    0.46579   0.90594   0.44875   1.000
    O558    O    0.88434   0.86318   0.41204   1.000
    O559    O    0.96580   0.90594   0.44875   1.000
    O560    O    0.59485   0.99526   0.42234   1.000
    O561    O    0.09485   0.99526   0.42234   1.000
    O562    O    0.17115   0.15225   0.40068   1.000
    O563    O    0.67115   0.15225   0.40068   1.000
    O564    O    0.83126   0.55122   0.40611   1.000
    O565    O    0.88404   0.66198   0.43610   1.000
    O566    O    0.33125   0.55122   0.40611   1.000
    O567    O    0.38403   0.66198   0.43610   1.000
    O568    O    0.58752   0.16409   0.41781   1.000
    O569    O    0.65396   0.20351   0.45088   1.000
    O570    O    0.08751   0.16409   0.41781   1.000
    O571    O    0.15395   0.20351   0.45088   1.000
    O572    O    0.25945   0.48583   0.42687   1.000
    O573    O    0.33318   0.46819   0.45710   1.000
    O574    O    0.75946   0.48583   0.42687   1.000
    O575    O    0.83319   0.46819   0.45710   1.000
    O576    O    0.50568   0.17646   0.43744   1.000
    O577    O    0.53072   0.11580   0.45420   1.000
    O578    O    0.00568   0.17646   0.43744   1.000
    O579    O    0.03071   0.11580   0.45420   1.000
    O580    O    0.41585   0.05800   0.45788   1.000
    O581    O    0.91586   0.05800   0.45788   1.000
    O582    O    0.69482   0.45797   0.44190   1.000
    O583    O    0.67629   0.51764   0.46976   1.000
    O584    O    0.19481   0.45797   0.44190   1.000
    O585    O    0.17628   0.51764   0.46976   1.000
    O586    O    0.82141   0.80202   0.47599   1.000
    O587    O    0.32140   0.80202   0.47599   1.000
    O588    O    0.13752   0.00662   0.45209   1.000
    O589    O    0.63752   0.00662   0.45209   1.000
    O590    O    0.56175   0.04050   0.46822   1.000
    O591    O    0.58879   0.96739   0.48242   1.000
    O592    O    0.06174   0.04050   0.46822   1.000
    O593    O    0.08878   0.96739   0.48242   1.000
    O594    O    0.71569   0.24476   0.47337   1.000
    O595    O    0.21568   0.24476   0.47337   1.000
    O596    O    0.87587   0.73746   0.49364   1.000
    O597    O    0.37586   0.73746   0.49364   1.000
    O598    O    0.47298   0.07311   0.48578   1.000
    O599    O    0.53423   0.09405   0.55122   1.000
    O600    O    0.97298   0.07311   0.48578   1.000
    O601    O    0.03422   0.09405   0.55122   1.000
    O602    O    0.39205   0.45197   0.49105   1.000
    O603    O    0.89206   0.45197   0.49105   1.000
    O604    O    0.89289   0.09296   0.49916   1.000
    O605    O    0.91125   0.03013   0.51755   1.000
    O606    O    0.39288   0.09296   0.49916   1.000
    O607    O    0.41124   0.03013   0.51755   1.000
    O608    O    0.60715   0.90704   0.50081   1.000
    O609    O    0.10714   0.90704   0.50081   1.000
    O610    O    0.65632   0.57773   0.49764   1.000
    O611    O    0.15631   0.57773   0.49764   1.000
    O612    O    0.12415   0.26254   0.50633   1.000
    O613    O    0.17862   0.19798   0.52397   1.000
    O614    O    0.62416   0.26254   0.50633   1.000
    O615    O    0.67862   0.19798   0.52397   1.000
    O616    O    0.84371   0.42227   0.50233   1.000
    O617    O    0.82375   0.48235   0.53021   1.000
    O618    O    0.34371   0.42227   0.50233   1.000
    O619    O    0.32374   0.48235   0.53021   1.000
    O620    O    0.10797   0.54802   0.50892   1.000
    O621    O    0.16684   0.53181   0.54287   1.000
    O622    O    0.60798   0.54802   0.50893   1.000
    O623    O    0.66684   0.53181   0.54287   1.000
    O624    O    0.28434   0.75524   0.52660   1.000
    O625    O    0.34607   0.79649   0.54908   1.000
    O626    O    0.78435   0.75524   0.52660   1.000
    O627    O    0.84608   0.79649   0.54908   1.000
    O628    O    0.02705   0.92689   0.51419   1.000
    O629    O    0.08417   0.94200   0.54209   1.000
    O630    O    0.52705   0.92689   0.51419   1.000
    O631    O    0.58418   0.94200   0.54209   1.000
    O632    O    0.93828   0.95702   0.53175   1.000
    O633    O    0.96931   0.88420   0.54577   1.000
    O634    O    0.43827   0.95702   0.53175   1.000
    O635    O    0.46930   0.88420   0.54577   1.000
    O636    O    0.61599   0.33802   0.56388   1.000
    O637    O    0.11599   0.33802   0.56388   1.000
    O638    O    0.36250   0.99090   0.54788   1.000
    O639    O    0.40517   0.00226   0.57764   1.000
    O640    O    0.86251   0.99090   0.54788   1.000
    O641    O    0.90518   0.00226   0.57764   1.000
    O642    O    0.99435   0.82353   0.56254   1.000
    O643    O    0.49435   0.82353   0.56254   1.000
    O644    O    0.30521   0.54202   0.55807   1.000
    O645    O    0.80522   0.54202   0.55807   1.000
    O646    O    0.61570   0.13682   0.58792   1.000
    O647    O    0.11569   0.13682   0.58792   1.000
    O648    O    0.74057   0.51416   0.57310   1.000
    O649    O    0.81077   0.50072   0.59303   1.000
    O650    O    0.24057   0.51416   0.57310   1.000
    O651    O    0.31076   0.50072   0.59303   1.000
    O652    O    0.91251   0.83591   0.58216   1.000
    O653    O    0.97001   0.85774   0.60437   1.000
    O654    O    0.41250   0.83591   0.58216   1.000
    O655    O    0.47000   0.85774   0.60437   1.000
    O656    O    0.66877   0.44877   0.59386   1.000
    O657    O    0.66155   0.54579   0.61566   1.000
    O658    O    0.16876   0.44877   0.59386   1.000
    O659    O    0.16154   0.54579   0.61566   1.000
    O660    O    0.32887   0.84775   0.59929   1.000
    O661    O    0.36103   0.80011   0.61507   1.000
    O662    O    0.82888   0.84775   0.59929   1.000
    O663    O    0.86104   0.80011   0.61507   1.000
    O664    O    0.36457   0.26237   0.62547   1.000
    O665    O    0.86458   0.26237   0.62547   1.000
    O666    O    0.06597   0.41206   0.63670   1.000
    O667    O    0.20203   0.34013   0.65036   1.000
    O668    O    0.56597   0.41206   0.63670   1.000
    O669    O    0.70203   0.34013   0.65036   1.000
    O670    O    0.82646   0.22422   0.62743   1.000
    O671    O    0.32645   0.22422   0.62743   1.000
    O672    O    0.97271   0.15055   0.65990   1.000
    O673    O    0.10148   0.06407   0.66197   1.000
    O674    O    0.47271   0.15055   0.65990   1.000
    O675    O    0.60149   0.06407   0.66197   1.000
    O676    O    0.50293   0.59923   0.65212   1.000
    O677    O    0.00293   0.59923   0.65212   1.000
    O678    O    0.14900   0.60441   0.64209   1.000
    O679    O    0.64901   0.60441   0.64209   1.000
    O680    O    0.79581   0.27205   0.66979   1.000
    O681    O    0.87125   0.21912   0.67293   1.000
    O682    O    0.29580   0.27205   0.66979   1.000
    O683    O    0.37124   0.21912   0.67293   1.000
    O684    O    0.08069   0.58216   0.66392   1.000
    O685    O    0.15640   0.56257   0.67630   1.000
    O686    O    0.58069   0.58216   0.66392   1.000
    O687    O    0.65641   0.56257   0.67631   1.000
    O688    O    0.97281   0.47598   0.69802   1.000
    O689    O    0.47281   0.47598   0.69802   1.000
    O690    O    0.01136   0.61508   0.69971   1.000
    O691    O    0.99475   0.54906   0.70345   1.000
    O692    O    0.51137   0.61508   0.69971   1.000
    O693    O    0.49475   0.54906   0.70345   1.000
    O694    O    0.26933   0.32710   0.71904   1.000
    O695    O    0.21978   0.27495   0.72146   1.000
    O696    O    0.76934   0.32710   0.71904   1.000
    O697    O    0.71979   0.27495   0.72146   1.000
    O698    O    0.41936   0.22201   0.72512   1.000
    O699    O    0.36931   0.16985   0.72797   1.000
    O700    O    0.91937   0.22201   0.72512   1.000
    O701    O    0.86931   0.16985   0.72797   1.000
    O702    O    0.81159   0.37253   0.72416   1.000
    O703    O    0.31158   0.37253   0.72416   1.000
    O704    O    0.12180   0.00639   0.73749   1.000
    O705    O    0.62181   0.00639   0.73746   1.000
    O706    O    0.96002   0.26841   0.72943   1.000
    O707    O    0.46001   0.26842   0.72943   1.000
    O708    O    0.67546   0.22940   0.73105   1.000
    O709    O    0.17545   0.22940   0.73105   1.000
    O710    O    0.32263   0.12550   0.73761   1.000
    O711    O    0.82263   0.12550   0.73761   1.000
    O712    O    0.91262   0.52661   0.74486   1.000
    O713    O    0.99542   0.49359   0.76248   1.000
    O714    O    0.41261   0.52661   0.74486   1.000
    O715    O    0.49542   0.49359   0.76248   1.000
    O716    O    0.54678   0.97335   0.75537   1.000
    O717    O    0.04677   0.97335   0.75538   1.000
    O718    O    0.75446   0.37456   0.76228   1.000
    O719    O    0.81842   0.33020   0.77200   1.000
    O720    O    0.25445   0.37456   0.76228   1.000
    O721    O    0.31842   0.33020   0.77200   1.000
    O722    O    0.15603   0.27068   0.76782   1.000
    O723    O    0.21824   0.22511   0.77748   1.000
    O724    O    0.65604   0.27068   0.76782   1.000
    O725    O    0.71825   0.22511   0.77748   1.000
    O726    O    0.95892   0.23163   0.77070   1.000
    O727    O    0.89302   0.27804   0.77494   1.000
    O728    O    0.45891   0.23163   0.77070   1.000
    O729    O    0.39301   0.27804   0.77494   1.000
    O730    O    0.35975   0.12751   0.77579   1.000
    O731    O    0.29234   0.17295   0.78086   1.000
    O732    O    0.85975   0.12751   0.77579   1.000
    O733    O    0.79234   0.17295   0.78086   1.000
    O734    O    0.61986   0.95095   0.79653   1.000
    O735    O    0.55872   0.02401   0.80207   1.000
    O736    O    0.11985   0.95095   0.79655   1.000
    O737    O    0.05871   0.02401   0.80209   1.000
    O738    O    0.66777   0.88500   0.80016   1.000
    O739    O    0.16777   0.88500   0.80016   1.000
    O740    O    0.46579   0.43615   0.83790   1.000
    O741    O    0.96579   0.43615   0.83790   1.000
    O742    O    0.77497   0.93762   0.82348   1.000
    O743    O    0.27496   0.93762   0.82348   1.000
    O744    O    0.81750   0.28093   0.82705   1.000
    O745    O    0.87832   0.34970   0.84007   1.000
    O746    O    0.31749   0.28093   0.82705   1.000
    O747    O    0.37831   0.34970   0.84007   1.000
    O748    O    0.26688   0.22800   0.83011   1.000
    O749    O    0.19725   0.15994   0.84943   1.000
    O750    O    0.76689   0.22799   0.83011   1.000
    O751    O    0.69726   0.15994   0.84943   1.000
    O752    O    0.70291   0.91794   0.83588   1.000
    O753    O    0.62785   0.90073   0.84778   1.000
    O754    O    0.20291   0.91794   0.83588   1.000
    O755    O    0.12785   0.90073   0.84780   1.000
    O756    O    0.08991   0.08798   0.86322   1.000
    O757    O    0.58992   0.08798   0.86322   1.000
    O758    O    0.27153   0.89575   0.85764   1.000
    O759    O    0.24172   0.95433   0.88416   1.000
    O760    O    0.77154   0.89575   0.85764   1.000
    O761    O    0.74173   0.95433   0.88416   1.000
    O762    O    0.75265   0.27582   0.87244   1.000
    O763    O    0.80878   0.23766   0.87449   1.000
    O764    O    0.25264   0.27582   0.87244   1.000
    O765    O    0.30877   0.23766   0.87449   1.000
    O766    O    0.06770   0.69960   0.88506   1.000
    O767    O    0.56771   0.69961   0.88506   1.000
    O768    O    0.70017   0.64227   0.89580   1.000
    O769    O    0.20016   0.64227   0.89582   1.000
    O770    O    0.35727   0.99442   0.90695   1.000
    O771    O    0.85727   0.99442   0.90695   1.000
    O772    O    0.97868   0.36340   0.91196   1.000
    O773    O    0.47868   0.36340   0.91196   1.000
    O774    O    0.69506   0.49761   0.92223   1.000
    O775    O    0.19505   0.49761   0.92223   1.000
    O776    O    0.55153   0.65197   0.90088   1.000
    O777    O    0.05152   0.65197   0.90092   1.000
    O778    O    0.18986   0.05131   0.90596   1.000
    O779    O    0.06704   0.16207   0.93592   1.000
    O780    O    0.68987   0.05131   0.90596   1.000
    O781    O    0.56704   0.16207   0.93592   1.000
    O782    O    0.12071   0.66394   0.91802   1.000
    O783    O    0.01817   0.70335   0.95101   1.000
    O784    O    0.62072   0.66394   0.91802   1.000
    O785    O    0.51817   0.70335   0.95101   1.000
    O786    O    0.28387   0.98588   0.92685   1.000
    O787    O    0.20393   0.96825   0.95705   1.000
    O788    O    0.78387   0.98588   0.92685   1.000
    O789    O    0.70394   0.96825   0.95705   1.000
    O790    O    0.18658   0.67643   0.93768   1.000
    O791    O    0.18367   0.61571   0.95437   1.000
    O792    O    0.68659   0.67644   0.93768   1.000
    O793    O    0.68368   0.61571   0.95437   1.000
    O794    O    0.32566   0.55839   0.95808   1.000
    O795    O    0.82566   0.55839   0.95808   1.000
    O796    O    0.85494   0.95798   0.94187   1.000
    O797    O    0.35493   0.95798   0.94187   1.000
    O798    O    0.63192   0.50866   0.95190   1.000
    O799    O    0.13191   0.50865   0.95191   1.000
    O800    O    0.68245   0.54279   0.96822   1.000
    O801    O    0.18244   0.54279   0.96822   1.000
    O802    O    0.42474   0.74471   0.97338   1.000
    O803    O    0.92475   0.74471   0.97338   1.000
    O804    O    0.24714   0.57319   0.98594   1.000
    O805    O    0.74715   0.57319   0.98594   1.000
    O806    O    0.63632   0.95203   0.99099   1.000
    O807    O    0.13631   0.95204   0.99100   1.000
loop_
    _geom_bond_atom_site_label_1
    _geom_bond_atom_site_label_2
    _geom_bond_distance
    _geom_bond_site_symmetry_2
    _ccdc_geom_bond_type
    C53    O376      0.51940  1_554   S
    C209   O376      0.51940      .   S
    C52    O377      0.51940  1_554   S
    C208   O377      0.51940      .   S
    C256   O378      0.56279      .   S
    C156   O378      0.56279      .   S
    C256   O379      0.77084      .   S
    C320   O379      0.77084      .   S
    C256   O380      0.72679  1_554   S
    C218   O380      0.72679  1_565   S
    C256   O381      0.54533  1_554   S
    C158   O381      0.54533      .   S
    C257   O382      0.56279      .   S
    C157   O382      0.56279      .   S
    C257   O383      0.77084      .   S
    C321   O383      0.77084      .   S
    C257   O384      0.72679  1_554   S
    C219   O384      0.72679  1_565   S
    C257   O385      0.54526  1_554   S
    C159   O385      0.54526      .   S
    C291   O386      0.73727      .   S
    C361   O386      0.73727      .   S
    C291   O387      0.90368      .   S
    C242   O387      0.90368      .   S
    C291   O388      0.74824  1_554   S
    C359   O388      0.74824      .   S
    C291   O389      0.74654  1_554   S
    C362   O389      0.74654      .   S
    C290   O390      0.73727      .   S
    C360   O390      0.73727      .   S
    C290   O391      0.90369  1_455   S
    C243   O391      0.90369      .   S
    C290   O392      0.74824  1_554   S
    C358   O392      0.74824      .   S
    C290   O393      0.74648  1_554   S
    C363   O393      0.74648  1_655   S
    C71    O394      0.55495      .   S
    C217   O394      0.55495  1_556   S
    C70    O395      0.55495      .   S
    C216   O395      0.55495  1_556   S
    C248   O396      0.74248      .   S
    C316   O396      0.74248      .   S
    C248   O397      0.55516      .   S
    C138   O397      0.55516      .   S
    C248   O398      0.75816  1_554   S
    C206   O398      0.75816      .   S
    C248   O399      0.54691      .   S
    C140   O399      0.54691  1_556   S
    C249   O400      0.74244      .   S
    C317   O400      0.74244      .   S
    C249   O401      0.55502      .   S
    C139   O401      0.55502      .   S
    C249   O402      0.75827  1_554   S
    C207   O402      0.75827      .   S
    C249   O403      0.54698      .   S
    C141   O403      0.54698  1_556   S
    C316   O404      0.74011      .   S
    C246   O404      0.74011      .   S
    C316   O405      0.74345      .   S
    C244   O405      0.74345      .   S
    C316   O406      1.20852  1_554   S
    C10    O406      1.20852      .   S
    C317   O407      0.74036      .   S
    C247   O407      0.74036      .   S
    C317   O408      0.74346      .   S
    C245   O408      0.74346      .   S
    C317   O409      1.20852  1_554   S
    C11    O409      1.20852      .   S
    C339   O410      1.26864      .   S
    C12    O410      1.26864      .   S
    C339   O411      0.74658      .   S
    C282   O411      0.74658  1_556   S
    C338   O412      1.26857  1_455   S
    C13    O412      1.26857      .   S
    C338   O413      0.74651  1_455   S
    C283   O413      0.74651  1_556   S
    C246   O414      0.54853      .   S
    C134   O414      0.54853      .   S
    C246   O415      0.55548      .   S
    C136   O415      0.55548      .   S
    C246   O416      0.75790      .   S
    C208   O416      0.75790  1_556   S
    C247   O417      0.54838      .   S
    C135   O417      0.54838      .   S
    C247   O418      0.55500      .   S
    C137   O418      0.55500      .   S
    C247   O419      0.75827      .   S
    C209   O419      0.75827  1_556   S
    C132   O420      0.54979      .   S
    C244   O420      0.54979      .   S
    C133   O421      0.54949      .   S
    C245   O421      0.54949      .   S
    C161   O422      0.55497      .   S
    C259   O422      0.55497      .   S
    C160   O423      0.55497      .   S
    C258   O423      0.55497      .   S
    C334   O424      1.21294      .   S
    C3     O424      1.21294      .   S
    C334   O425      0.74830      .   S
    C282   O425      0.74830  1_556   S
    C335   O426      1.21285  1_655   S
    C2     O426      1.21285      .   S
    C335   O427      0.74830      .   S
    C283   O427      0.74830  1_556   S
    C258   O428      0.74240      .   S
    C320   O428      0.74240      .   S
    C258   O429      0.54705      .   S
    C162   O429      0.54705  1_565   S
    C258   O430      0.75818  1_545   S
    C216   O430      0.75818  1_556   S
    C259   O431      0.74241      .   S
    C321   O431      0.74241      .   S
    C259   O432      0.54663      .   S
    C163   O432      0.54663  1_565   S
    C259   O433      0.75818  1_545   S
    C217   O433      0.75818  1_556   S
    C245   O434      0.76306      .   S
    C243   O434      0.76306      .   S
    C245   O435      0.55340      .   S
    C131   O435      0.55340      .   S
    C244   O436      0.76303      .   S
    C242   O436      0.76303      .   S
    C244   O437      0.55340      .   S
    C130   O437      0.55340      .   S
    C320   O438      1.20807  1_545   S
    C12    O438      1.20807      .   S
    C320   O439      0.74347      .   S
    C254   O439      0.74347      .   S
    C321   O440      1.20807  1_545   S
    C13    O440      1.20807      .   S
    C321   O441      0.74346      .   S
    C255   O441      0.74346      .   S
    C242   O442      0.54956      .   S
    C128   O442      0.54956      .   S
    C242   O443      0.54981      .   S
    C126   O443      0.54981      .   S
    C243   O444      0.54951      .   S
    C129   O444      0.54951      .   S
    C243   O445      0.54976      .   S
    C127   O445      0.54976      .   S
    C54    O446      0.54880      .   S
    C210   O446      0.54880      .   S
    C55    O447      0.54881      .   S
    C211   O447      0.54881      .   S
    C13    O448      1.21326      .   S
    C365   O448      1.21326      .   S
    C13    O449      1.18643      .   S
    C323   O449      1.18643      .   S
    C12    O450      1.21326      .   S
    C364   O450      1.21326      .   S
    C12    O451      1.18643      .   S
    C322   O451      1.18643      .   S
    C57    O452      0.54736      .   S
    C211   O452      0.54736      .   S
    C56    O453      0.54736      .   S
    C210   O453      0.54736      .   S
    C3     O454      1.18697      .   S
    C303   O454      1.18697      .   S
    C3     O455      1.27032      .   S
    C374   O455      1.27032      .   S
    C3     O456      1.20845      .   S
    C301   O456      1.20845  1_556   S
    C2     O457      1.18697      .   S
    C302   O457      1.18697      .   S
    C2     O458      1.27026      .   S
    C375   O458      1.27026  1_655   S
    C2     O459      1.20845      .   S
    C300   O459      1.20845  1_556   S
    C150   O460      0.54953      .   S
    C252   O460      0.54953      .   S
    C151   O461      0.54953      .   S
    C253   O461      0.54953      .   S
    C152   O462      0.55339      .   S
    C254   O462      0.55339      .   S
    C153   O463      0.55338      .   S
    C255   O463      0.55338      .   S
    C211   O464      0.74283      .   S
    C323   O464      0.74283      .   S
    C211   O465      0.74180      .   S
    C303   O465      0.74180      .   S
    C210   O466      0.74283      .   S
    C322   O466      0.74283      .   S
    C210   O467      0.74180      .   S
    C302   O467      0.74180      .   S
    C254   O468      0.76310      .   S
    C252   O468      0.76310      .   S
    C254   O469      0.54950      .   S
    C154   O469      0.54950      .   S
    C255   O470      0.76310      .   S
    C253   O470      0.76310      .   S
    C255   O471      0.54950      .   S
    C155   O471      0.54950      .   S
    C364   O472      0.74811      .   S
    C292   O472      0.74811  1_545   S
    C365   O473      0.74812      .   S
    C293   O473      0.74812  1_545   S
    C253   O474      0.54972      .   S
    C149   O474      0.54972      .   S
    C253   O475      0.90368      .   S
    C293   O475      0.90368      .   S
    C252   O476      0.54972      .   S
    C148   O476      0.54972      .   S
    C252   O477      0.90368      .   S
    C292   O477      0.90368      .   S
    C323   O478      0.74181      .   S
    C261   O478      0.74181      .   S
    C323   O479      0.74217      .   S
    C279   O479      0.74217      .   S
    C322   O480      0.74177      .   S
    C260   O480      0.74177      .   S
    C322   O481      0.74217      .   S
    C278   O481      0.74217      .   S
    C302   O482      0.74214      .   S
    C272   O482      0.74214      .   S
    C302   O483      0.74276      .   S
    C270   O483      0.74276      .   S
    C303   O484      0.74215      .   S
    C273   O484      0.74215      .   S
    C303   O485      0.74276      .   S
    C271   O485      0.74276      .   S
    C167   O486      0.54738      .   S
    C261   O486      0.54738      .   S
    C166   O487      0.54732      .   S
    C260   O487      0.54732      .   S
    C374   O488      0.74644      .   S
    C295   O488      0.74644      .   S
    C375   O489      0.74637  1_655   S
    C294   O489      0.74637      .   S
    C58    O490      0.54863      .   S
    C272   O490      0.54863      .   S
    C59    O491      0.54862      .   S
    C273   O491      0.54862      .   S
    C190   O492      0.54860      .   S
    C278   O492      0.54860      .   S
    C191   O493      0.54860      .   S
    C279   O493      0.54860      .   S
    C186   O494      0.54878      .   S
    C270   O494      0.54878      .   S
    C187   O495      0.54878      .   S
    C271   O495      0.54878      .   S
    C292   O496      0.73723      .   S
    C366   O496      0.73723      .   S
    C292   O497      0.74645  1_545   S
    C368   O497      0.74645      .   S
    C293   O498      0.73724      .   S
    C367   O498      0.73724      .   S
    C293   O499      0.74645  1_545   S
    C369   O499      0.74645      .   S
    C372   O500      0.73725      .   S
    C294   O500      0.73725      .   S
    C373   O501      0.73725      .   S
    C295   O501      0.73725      .   S
    C260   O502      0.54882      .   S
    C164   O502      0.54882      .   S
    C260   O503      0.74282      .   S
    C298   O503      0.74282      .   S
    C261   O504      0.54876      .   S
    C165   O504      0.54876      .   S
    C261   O505      0.74279      .   S
    C299   O505      0.74279      .   S
    C273   O506      0.54861      .   S
    C37    O506      0.54861      .   S
    C273   O507      0.74221      .   S
    C299   O507      0.74221      .   S
    C272   O508      0.54861      .   S
    C36    O508      0.54861      .   S
    C272   O509      0.74221      .   S
    C298   O509      0.74221      .   S
    C278   O510      0.54864      .   S
    C168   O510      0.54864      .   S
    C278   O511      0.74218      .   S
    C326   O511      0.74218      .   S
    C279   O512      0.54863      .   S
    C169   O512      0.54863      .   S
    C279   O513      0.74218      .   S
    C327   O513      0.74218      .   S
    C270   O514      0.54741      .   S
    C188   O514      0.54741      .   S
    C270   O515      0.74178      .   S
    C326   O515      0.74178      .   S
    C271   O516      0.54740      .   S
    C189   O516      0.54740      .   S
    C271   O517      0.74178      .   S
    C327   O517      0.74178      .   S
    C295   O518      0.90366      .   S
    C262   O518      0.90366      .   S
    C295   O519      0.74828      .   S
    C371   O519      0.74828      .   S
    C294   O520      0.90360      .   S
    C263   O520      0.90360  1_655   S
    C294   O521      0.74828      .   S
    C370   O521      0.74828      .   S
    C170   O522      0.54970      .   S
    C262   O522      0.54970      .   S
    C171   O523      0.54971  1_455   S
    C263   O523      0.54971      .   S
    C368   O524      1.26561      .   S
    C0     O524      1.26561      .   S
    C369   O525      1.26561      .   S
    C1     O525      1.26561      .   S
    C177   O526      0.54947      .   S
    C265   O526      0.54947      .   S
    C176   O527      0.54947      .   S
    C264   O527      0.54947      .   S
    C299   O528      0.74173      .   S
    C201   O528      0.74173      .   S
    C299   O529      1.18553      .   S
    C0     O529      1.18553      .   S
    C298   O530      0.74173      .   S
    C200   O530      0.74173      .   S
    C298   O531      1.18547      .   S
    C1     O531      1.18547  1_655   S
    C327   O532      0.74272      .   S
    C201   O532      0.74272      .   S
    C327   O533      1.18577      .   S
    C15    O533      1.18577      .   S
    C326   O534      0.74272      .   S
    C200   O534      0.74272      .   S
    C326   O535      1.18577      .   S
    C14    O535      1.18577      .   S
    C263   O536      0.76294      .   S
    C265   O536      0.76294      .   S
    C263   O537      0.54941      .   S
    C172   O537      0.54941  1_455   S
    C262   O538      0.76294      .   S
    C264   O538      0.76294      .   S
    C262   O539      0.54948      .   S
    C173   O539      0.54948      .   S
    C371   O540      1.21238      .   S
    C14    O540      1.21238      .   S
    C370   O541      1.21229  1_455   S
    C15    O541      1.21229      .   S
    C265   O542      0.55327      .   S
    C175   O542      0.55327      .   S
    C265   O543      0.74344      .   S
    C325   O543      0.74344      .   S
    C264   O544      0.55328      .   S
    C174   O544      0.55328      .   S
    C264   O545      0.74344      .   S
    C324   O545      0.74344      .   S
    C201   O546      0.54738      .   S
    C35    O546      0.54738      .   S
    C201   O547      0.54883      .   S
    C33    O547      0.54883      .   S
    C200   O548      0.54739      .   S
    C34    O548      0.54739      .   S
    C200   O549      0.54882      .   S
    C32    O549      0.54882      .   S
    C104   O550      0.55001      .   S
    C232   O550      0.55001      .   S
    C105   O551      0.55001      .   S
    C233   O551      0.55001      .   S
    C109   O552      0.55335      .   S
    C235   O552      0.55335      .   S
    C108   O553      0.55335      .   S
    C234   O553      0.55335      .   S
    C184   O554      0.54711      .   S
    C268   O554      0.54711      .   S
    C185   O555      0.54711      .   S
    C269   O555      0.54711      .   S
    C0     O556      1.21272      .   S
    C328   O556      1.21272      .   S
    C0     O557      1.20767      .   S
    C296   O557      1.20767      .   S
    C1     O558      1.21272      .   S
    C329   O558      1.21272      .   S
    C1     O559      1.20767      .   S
    C297   O559      1.20767      .   S
    C115   O560      0.54509      .   S
    C237   O560      0.54509  1_545   S
    C114   O561      0.54509      .   S
    C236   O561      0.54509  1_545   S
    C106   O562      0.54951      .   S
    C232   O562      0.54951      .   S
    C107   O563      0.54951      .   S
    C233   O563      0.54951      .   S
    C15    O564      1.20808      .   S
    C325   O564      1.20808      .   S
    C15    O565      1.26767      .   S
    C333   O565      1.26767      .   S
    C14    O566      1.20809      .   S
    C324   O566      1.20809      .   S
    C14    O567      1.26766      .   S
    C332   O567      1.26766      .   S
    C233   O568      0.76299      .   S
    C235   O568      0.76299      .   S
    C233   O569      0.90352      .   S
    C289   O569      0.90352      .   S
    C232   O570      0.76299      .   S
    C234   O570      0.76299      .   S
    C232   O571      0.90351      .   S
    C288   O571      0.90351      .   S
    C324   O572      0.74236      .   S
    C268   O572      0.74236      .   S
    C324   O573      0.74038      .   S
    C266   O573      0.74038      .   S
    C325   O574      0.74237      .   S
    C269   O574      0.74237      .   S
    C325   O575      0.74038      .   S
    C267   O575      0.74038      .   S
    C235   O576      0.54948      .   S
    C110   O576      0.54948      .   S
    C235   O577      0.74345      .   S
    C313   O577      0.74345      .   S
    C234   O578      0.54941      .   S
    C111   O578      0.54941  1_655   S
    C234   O579      0.74346      .   S
    C312   O579      0.74346      .   S
    C116   O580      0.55494      .   S
    C238   O580      0.55494      .   S
    C117   O581      0.55495      .   S
    C239   O581      0.55495      .   S
    C269   O582      0.55497      .   S
    C183   O582      0.55497      .   S
    C269   O583      0.75816      .   S
    C227   O583      0.75816      .   S
    C268   O584      0.55497      .   S
    C182   O584      0.55497      .   S
    C268   O585      0.75816      .   S
    C226   O585      0.75816      .   S
    C329   O586      0.74809      .   S
    C281   O586      0.74809      .   S
    C328   O587      0.74809      .   S
    C280   O587      0.74809      .   S
    C112   O588      0.56311      .   S
    C236   O588      0.56311      .   S
    C113   O589      0.56310      .   S
    C237   O589      0.56310      .   S
    C237   O590      0.77117      .   S
    C313   O590      0.77117      .   S
    C237   O591      0.72631  1_545   S
    C199   O591      0.72631      .   S
    C236   O592      0.77117      .   S
    C312   O592      0.77117      .   S
    C236   O593      0.72631  1_545   S
    C198   O593      0.72631      .   S
    C355   O594      0.73728      .   S
    C289   O594      0.73728      .   S
    C354   O595      0.73728      .   S
    C288   O595      0.73728      .   S
    C333   O596      0.74646      .   S
    C281   O596      0.74646      .   S
    C332   O597      0.74647      .   S
    C280   O597      0.74647      .   S
    C313   O598      0.74238      .   S
    C238   O598      0.74238      .   S
    C313   O599      1.20767      .   S
    C9     O599      1.20767      .   S
    C312   O600      0.74227  1_455   S
    C239   O600      0.74227      .   S
    C312   O601      1.20767      .   S
    C8     O601      1.20767      .   S
    C178   O602      0.54838      .   S
    C266   O602      0.54838      .   S
    C179   O603      0.54838      .   S
    C267   O603      0.54838      .   S
    C239   O604      0.54707      .   S
    C119   O604      0.54707      .   S
    C239   O605      0.75820      .   S
    C197   O605      0.75820  1_565   S
    C238   O606      0.54707      .   S
    C118   O606      0.54707      .   S
    C238   O607      0.75820      .   S
    C196   O607      0.75820  1_565   S
    C31    O608      0.54707      .   S
    C199   O608      0.54707      .   S
    C30    O609      0.54707      .   S
    C198   O609      0.54707      .   S
    C93    O610      0.55497      .   S
    C227   O610      0.55497      .   S
    C92    O611      0.55496      .   S
    C226   O611      0.55496      .   S
    C288   O612      0.74648      .   S
    C356   O612      0.74648      .   S
    C288   O613      0.74815      .   S
    C352   O613      0.74815      .   S
    C289   O614      0.74648      .   S
    C357   O614      0.74648      .   S
    C289   O615      0.74815      .   S
    C353   O615      0.74815      .   S
    C267   O616      0.55496      .   S
    C181   O616      0.55496      .   S
    C267   O617      0.75816      .   S
    C229   O617      0.75816      .   S
    C266   O618      0.55497      .   S
    C180   O618      0.55497      .   S
    C266   O619      0.75816      .   S
    C228   O619      0.75816      .   S
    C226   O620      0.54839      .   S
    C90    O620      0.54839      .   S
    C226   O621      0.74038      .   S
    C308   O621      0.74038      .   S
    C227   O622      0.54838      .   S
    C91    O622      0.54838      .   S
    C227   O623      0.74038      .   S
    C309   O623      0.74038      .   S
    C280   O624      0.73730      .   S
    C330   O624      0.73730      .   S
    C280   O625      0.90358      .   S
    C192   O625      0.90358      .   S
    C281   O626      0.73729      .   S
    C331   O626      0.73729      .   S
    C281   O627      0.90359      .   S
    C193   O627      0.90359      .   S
    C198   O628      0.74227      .   S
    C297   O628      0.74227  1_655   S
    C198   O629      0.55495      .   S
    C28    O629      0.55495      .   S
    C199   O630      0.74238      .   S
    C296   O630      0.74238      .   S
    C199   O631      0.55494      .   S
    C29    O631      0.55494      .   S
    C297   O632      0.74035      .   S
    C197   O632      0.74035      .   S
    C297   O633      0.74347      .   S
    C195   O633      0.74347      .   S
    C296   O634      0.74035      .   S
    C196   O634      0.74035      .   S
    C296   O635      0.74347      .   S
    C194   O635      0.74347      .   S
    C357   O636      1.26767      .   S
    C7     O636      1.26767      .   S
    C356   O637      1.26767      .   S
    C6     O637      1.26767      .   S
    C196   O638      0.54837      .   S
    C24    O638      0.54837      .   S
    C196   O639      0.55499  1_565   S
    C26    O639      0.55499      .   S
    C197   O640      0.54837      .   S
    C25    O640      0.54837      .   S
    C197   O641      0.55499  1_565   S
    C27    O641      0.55499      .   S
    C22    O642      0.54942  1_455   S
    C195   O642      0.54942      .   S
    C23    O643      0.54947      .   S
    C194   O643      0.54947      .   S
    C94    O644      0.55497      .   S
    C228   O644      0.55497      .   S
    C95    O645      0.55497      .   S
    C229   O645      0.55497      .   S
    C353   O646      1.21272      .   S
    C9     O646      1.21272      .   S
    C352   O647      1.21272      .   S
    C8     O647      1.21272      .   S
    C229   O648      0.74237      .   S
    C309   O648      0.74237      .   S
    C229   O649      0.54704      .   S
    C97    O649      0.54704      .   S
    C228   O650      0.74236      .   S
    C308   O650      0.74236      .   S
    C228   O651      0.54704      .   S
    C96    O651      0.54704      .   S
    C195   O652      0.76299      .   S
    C193   O652      0.76299      .   S
    C195   O653      0.55335      .   S
    C21    O653      0.55335      .   S
    C194   O654      0.76298      .   S
    C192   O654      0.76298      .   S
    C194   O655      0.55335      .   S
    C20    O655      0.55335      .   S
    C309   O656      1.20807      .   S
    C7     O656      1.20807      .   S
    C309   O657      0.74290      .   S
    C225   O657      0.74290      .   S
    C308   O658      1.20807      .   S
    C6     O658      1.20807      .   S
    C308   O659      0.74291      .   S
    C224   O659      0.74291      .   S
    C192   O660      0.54951      .   S
    C18    O660      0.54951      .   S
    C192   O661      0.54971      .   S
    C16    O661      0.54971      .   S
    C193   O662      0.54951      .   S
    C19    O662      0.54951      .   S
    C193   O663      0.54970      .   S
    C17    O663      0.54970      .   S
    C120   O664      0.54879      .   S
    C240   O664      0.54879      .   S
    C121   O665      0.54878      .   S
    C241   O665      0.54878      .   S
    C6     O666      1.21229      .   S
    C347   O666      1.21229  1_655   S
    C6     O667      1.18577      .   S
    C310   O667      1.18577      .   S
    C7     O668      1.21238      .   S
    C346   O668      1.21238      .   S
    C7     O669      1.18577      .   S
    C311   O669      1.18577      .   S
    C123   O670      0.54782      .   S
    C241   O670      0.54782      .   S
    C122   O671      0.54783      .   S
    C240   O671      0.54783      .   S
    C8     O672      1.18547  1_455   S
    C315   O672      1.18547      .   S
    C8     O673      1.26556      .   S
    C344   O673      1.26556      .   S
    C9     O674      1.18554      .   S
    C314   O674      1.18554      .   S
    C9     O675      1.26555      .   S
    C345   O675      1.26555      .   S
    C84    O676      0.54955      .   S
    C223   O676      0.54955      .   S
    C85    O677      0.54948  1_655   S
    C222   O677      0.54948      .   S
    C86    O678      0.55327      .   S
    C224   O678      0.55327      .   S
    C87    O679      0.55327      .   S
    C225   O679      0.55327      .   S
    C241   O680      0.74275      .   S
    C311   O680      0.74275      .   S
    C241   O681      0.74179      .   S
    C315   O681      0.74179      .   S
    C240   O682      0.74276      .   S
    C310   O682      0.74276      .   S
    C240   O683      0.74179      .   S
    C314   O683      0.74179      .   S
    C224   O684      0.76301      .   S
    C222   O684      0.76301      .   S
    C224   O685      0.54997      .   S
    C88    O685      0.54997      .   S
    C225   O686      0.76302      .   S
    C223   O686      0.76302      .   S
    C225   O687      0.55012      .   S
    C89    O687      0.55012      .   S
    C347   O688      0.74817      .   S
    C287   O688      0.74817      .   S
    C346   O689      0.74817      .   S
    C286   O689      0.74817      .   S
    C222   O690      0.54971      .   S
    C82    O690      0.54971  1_655   S
    C222   O691      0.90353  1_455   S
    C287   O691      0.90353      .   S
    C223   O692      0.54971      .   S
    C83    O692      0.54971      .   S
    C223   O693      0.90359      .   S
    C286   O693      0.90359      .   S
    C310   O694      0.74179      .   S
    C230   O694      0.74179      .   S
    C310   O695      0.73853      .   S
    C274   O695      0.73853      .   S
    C311   O696      0.74178      .   S
    C231   O696      0.74178      .   S
    C311   O697      0.73853      .   S
    C275   O697      0.73853      .   S
    C314   O698      0.74221      .   S
    C276   O698      0.74221      .   S
    C314   O699      0.74279      .   S
    C220   O699      0.74279      .   S
    C315   O700      0.74221      .   S
    C277   O700      0.74221      .   S
    C315   O701      0.74278      .   S
    C221   O701      0.74278      .   S
    C101   O702      0.54741      .   S
    C231   O702      0.54741      .   S
    C100   O703      0.54740      .   S
    C230   O703      0.54740      .   S
    C344   O704      0.74650      .   S
    C284   O704      0.74650  1_565   S
    C345   O705      0.74630      .   S
    C285   O705      0.74630  1_565   S
    C125   O706      0.54861      .   S
    C277   O706      0.54861      .   S
    C124   O707      0.54861      .   S
    C276   O707      0.54861      .   S
    C81    O708      0.54377      .   S
    C275   O708      0.54377      .   S
    C80    O709      0.54376      .   S
    C274   O709      0.54376      .   S
    C76    O710      0.54875      .   S
    C220   O710      0.54875      .   S
    C77    O711      0.54876      .   S
    C221   O711      0.54876      .   S
    C287   O712      0.73728      .   S
    C349   O712      0.73728      .   S
    C287   O713      0.74644      .   S
    C350   O713      0.74644  1_455   S
    C286   O714      0.73728      .   S
    C348   O714      0.73728      .   S
    C286   O715      0.74651      .   S
    C351   O715      0.74651      .   S
    C343   O716      0.73707      .   S
    C285   O716      0.73707      .   S
    C342   O717      0.73723      .   S
    C284   O717      0.73723      .   S
    C231   O718      0.54878      .   S
    C99    O718      0.54878      .   S
    C231   O719      0.74276      .   S
    C319   O719      0.74276      .   S
    C230   O720      0.54878      .   S
    C98    O720      0.54878      .   S
    C230   O721      0.74276      .   S
    C318   O721      0.74276      .   S
    C274   O722      0.55181      .   S
    C102   O722      0.55181      .   S
    C274   O723      0.74759      .   S
    C306   O723      0.74759      .   S
    C275   O724      0.55180      .   S
    C103   O724      0.55180      .   S
    C275   O725      0.74760      .   S
    C307   O725      0.74760      .   S
    C277   O726      0.54862      .   S
    C147   O726      0.54862      .   S
    C277   O727      0.74215      .   S
    C319   O727      0.74215      .   S
    C276   O728      0.54861      .   S
    C146   O728      0.54861      .   S
    C276   O729      0.74215      .   S
    C318   O729      0.74215      .   S
    C220   O730      0.54737      .   S
    C78    O730      0.54737      .   S
    C220   O731      0.74182      .   S
    C306   O731      0.74182      .   S
    C221   O732      0.54738      .   S
    C79    O732      0.54738      .   S
    C221   O733      0.74181      .   S
    C307   O733      0.74181      .   S
    C285   O734      0.90386      .   S
    C213   O734      0.90386      .   S
    C285   O735      0.74833  1_565   S
    C341   O735      0.74833      .   S
    C284   O736      0.90368      .   S
    C212   O736      0.90368      .   S
    C284   O737      0.74812  1_565   S
    C340   O737      0.74812      .   S
    C61    O738      0.54973      .   S
    C213   O738      0.54973      .   S
    C60    O739      0.54973      .   S
    C212   O739      0.54973      .   S
    C351   O740      1.27032      .   S
    C10    O740      1.27032      .   S
    C350   O741      1.27025  1_455   S
    C11    O741      1.27025      .   S
    C67    O742      0.54907      .   S
    C215   O742      0.54907      .   S
    C66    O743      0.54907      .   S
    C214   O743      0.54907      .   S
    C319   O744      0.74180      .   S
    C251   O744      0.74180      .   S
    C319   O745      1.18693      .   S
    C11    O745      1.18693      .   S
    C318   O746      0.74180      .   S
    C250   O746      0.74180      .   S
    C318   O747      1.18693      .   S
    C10    O747      1.18693      .   S
    C306   O748      0.74283      .   S
    C250   O748      0.74283      .   S
    C306   O749      1.18624      .   S
    C4     O749      1.18624      .   S
    C307   O750      0.74284      .   S
    C251   O750      0.74284      .   S
    C307   O751      1.18623      .   S
    C5     O751      1.18623      .   S
    C213   O752      0.76278      .   S
    C215   O752      0.76278      .   S
    C213   O753      0.54932      .   S
    C63    O753      0.54932      .   S
    C212   O754      0.76278      .   S
    C214   O754      0.76278      .   S
    C212   O755      0.54953      .   S
    C62    O755      0.54953      .   S
    C340   O756      1.21302      .   S
    C4     O756      1.21302      .   S
    C341   O757      1.21302      .   S
    C5     O757      1.21302      .   S
    C214   O758      0.55360      .   S
    C64    O758      0.55360      .   S
    C214   O759      0.74399      .   S
    C304   O759      0.74399      .   S
    C215   O760      0.55360      .   S
    C65    O760      0.55360      .   S
    C215   O761      0.74398      .   S
    C305   O761      0.74398      .   S
    C251   O762      0.54736      .   S
    C145   O762      0.54736      .   S
    C251   O763      0.54876      .   S
    C143   O763      0.54876      .   S
    C250   O764      0.54736      .   S
    C144   O764      0.54736      .   S
    C250   O765      0.54876      .   S
    C142   O765      0.54876      .   S
    C38    O766      0.54969      .   S
    C202   O766      0.54969      .   S
    C39    O767      0.54969      .   S
    C203   O767      0.54969      .   S
    C43    O768      0.55366      .   S
    C205   O768      0.55366      .   S
    C42    O769      0.55340      .   S
    C204   O769      0.55340      .   S
    C74    O770      0.51980  1_545   S
    C218   O770      0.51980      .   S
    C75    O771      0.51980  1_545   S
    C219   O771      0.51980      .   S
    C11    O772      1.21290      .   S
    C358   O772      1.21290  1_455   S
    C10    O773      1.21299      .   S
    C359   O773      1.21299      .   S
    C49    O774      0.55493      .   S
    C207   O774      0.55493      .   S
    C48    O775      0.55493      .   S
    C206   O775      0.55493      .   S
    C41    O776      0.54978      .   S
    C203   O776      0.54978      .   S
    C40    O777      0.54948      .   S
    C202   O777      0.54948      .   S
    C4     O778      1.20817      .   S
    C304   O778      1.20817  1_565   S
    C4     O779      1.26874      .   S
    C363   O779      1.26874  1_655   S
    C5     O780      1.20817      .   S
    C305   O780      1.20817  1_565   S
    C5     O781      1.26881      .   S
    C362   O781      1.26881      .   S
    C202   O782      0.76309      .   S
    C204   O782      0.76309      .   S
    C202   O783      0.90369      .   S
    C283   O783      0.90369  1_655   S
    C203   O784      0.76309      .   S
    C205   O784      0.76309      .   S
    C203   O785      0.90374      .   S
    C282   O785      0.90374      .   S
    C304   O786      0.74241      .   S
    C218   O786      0.74241      .   S
    C304   O787      0.74050      .   S
    C216   O787      0.74050      .   S
    C305   O788      0.74240      .   S
    C219   O788      0.74240      .   S
    C305   O789      0.74050      .   S
    C217   O789      0.74050      .   S
    C204   O790      0.54945      .   S
    C44    O790      0.54945      .   S
    C204   O791      0.74346      .   S
    C300   O791      0.74346      .   S
    C205   O792      0.54945      .   S
    C45    O792      0.54945      .   S
    C205   O793      0.74346      .   S
    C301   O793      0.74346      .   S
    C50    O794      0.55496      .   S
    C208   O794      0.55496      .   S
    C51    O795      0.55495      .   S
    C209   O795      0.55495      .   S
    C219   O796      0.55495      .   S
    C73    O796      0.55495      .   S
    C218   O797      0.55495      .   S
    C72    O797      0.55495      .   S
    C47    O798      0.54841      .   S
    C207   O798      0.54841      .   S
    C46    O799      0.54836      .   S
    C206   O799      0.54836      .   S
    C207   O800      0.74039      .   S
    C301   O800      0.74039      .   S
    C206   O801      0.74039      .   S
    C300   O801      0.74039      .   S
    C336   O802      0.73722      .   S
    C282   O802      0.73722      .   S
    C337   O803      0.73722      .   S
    C283   O803      0.73722      .   S
    C300   O804      0.74241      .   S
    C208   O804      0.74241      .   S
    C301   O805      0.74242      .   S
    C209   O805      0.74242      .   S
    C69    O806      0.54843      .   S
    C217   O806      0.54843      .   S
    C68    O807      0.54840      .   S
    C216   O807      0.54840      .   S
