# CIF file generated by openbabel 2.4.90, see http://openbabel.sf.net
data_I
_chemical_name_common ''
_cell_length_a 13.69
_cell_length_b 16.701
_cell_length_c 16.701
_cell_angle_alpha 87.613
_cell_angle_beta 78.271
_cell_angle_gamma 78.214
_space_group_name_H-M_alt 'P 1'
_space_group_name_Hall 'P 1'
loop_
    _symmetry_equiv_pos_as_xyz
    x,y,z
loop_
    _atom_site_label
    _atom_site_type_symbol
    _atom_site_fract_x
    _atom_site_fract_y
    _atom_site_fract_z
    _atom_site_occupancy
    N0      N    0.25001   0.99971   0.99984   1.000
    N1      N    0.75002   0.99971   0.99983   1.000
    N2      N    0.25001   0.50000   0.99969   1.000
    N3      N    0.50001   0.99985   0.49998   1.000
    N4      N    0.25001   0.50000   0.49998   1.000
    N5      N    0.75001   0.50000   0.49998   1.000
    N6      N    0.75002   0.50000   0.99969   1.000
    N7      N    0.00001   0.99985   0.49998   1.000
    N8      N    0.18742   0.74997   0.25000   1.000
    N9      N    0.68742   0.74997   0.25000   1.000
    N10     N    0.31260   0.25002   0.74992   1.000
    N11     N    0.81261   0.25002   0.74992   1.000
    Zr12    Zr   0.15294   0.38039   0.60681   1.000
    O13     O    0.18117   0.42739   0.57687   1.000
    O14     O    0.15547   0.41821   0.58757   1.000
    O15     O    0.20513   0.33773   0.65348   1.000
    O16     O    0.10547   0.27466   0.56937   1.000
    Zr17    Zr   0.59268   0.60666   0.11965   1.000
    O18     O    0.62362   0.65340   0.16230   1.000
    O19     O    0.49240   0.56929   0.22533   1.000
    O20     O    0.61418   0.58748   0.08175   1.000
    O21     O    0.64451   0.57677   0.07257   1.000
    Zr22    Zr   0.65295   0.38039   0.60681   1.000
    O23     O    0.60548   0.27466   0.56937   1.000
    O24     O    0.70514   0.33773   0.65348   1.000
    O25     O    0.65547   0.41821   0.58757   1.000
    O26     O    0.68117   0.42739   0.57687   1.000
    Zr27    Zr   0.54343   0.10711   0.61961   1.000
    O28     O    0.53028   0.07703   0.57261   1.000
    O29     O    0.55064   0.08772   0.58178   1.000
    O30     O    0.60959   0.06950   0.72526   1.000
    O31     O    0.46804   0.15370   0.66226   1.000
    Zr32    Zr   0.90736   0.39334   0.88031   1.000
    O33     O    0.87641   0.34660   0.83765   1.000
    O34     O    0.00763   0.43071   0.77463   1.000
    O35     O    0.85552   0.42323   0.92724   1.000
    O36     O    0.88585   0.41252   0.91807   1.000
    Zr37    Zr   0.85356   0.88030   0.10702   1.000
    O38     O    0.79933   0.83765   0.15364   1.000
    O39     O    0.97253   0.77463   0.06944   1.000
    O40     O    0.81682   0.92725   0.07697   1.000
    O41     O    0.84181   0.91808   0.08765   1.000
    Zr42    Zr   0.35355   0.88030   0.10702   1.000
    O43     O    0.47252   0.77463   0.06944   1.000
    O44     O    0.29932   0.83765   0.15364   1.000
    O45     O    0.31681   0.92725   0.07697   1.000
    O46     O    0.34180   0.91808   0.08765   1.000
    Zr47    Zr   0.34707   0.61961   0.39316   1.000
    O48     O    0.39455   0.72526   0.43060   1.000
    O49     O    0.31885   0.57261   0.42310   1.000
    O50     O    0.34455   0.58179   0.41239   1.000
    O51     O    0.29489   0.66226   0.34648   1.000
    Zr52    Zr   0.09267   0.60666   0.11965   1.000
    O53     O    0.11417   0.58748   0.08175   1.000
    O54     O    0.14450   0.57677   0.07257   1.000
    O55     O    0.99240   0.56929   0.22533   1.000
    O56     O    0.12362   0.65340   0.16230   1.000
    Zr57    Zr   0.64648   0.11970   0.89290   1.000
    O58     O    0.52750   0.22537   0.93035   1.000
    O59     O    0.65822   0.08177   0.91221   1.000
    O60     O    0.68321   0.07261   0.92290   1.000
    O61     O    0.70071   0.16234   0.84629   1.000
    Zr62    Zr   0.14647   0.11970   0.89290   1.000
    O63     O    0.20070   0.16234   0.84629   1.000
    O64     O    0.02750   0.22537   0.93035   1.000
    O65     O    0.15821   0.08177   0.91221   1.000
    O66     O    0.18320   0.07261   0.92290   1.000
    Zr67    Zr   0.45659   0.89289   0.38036   1.000
    O68     O    0.44938   0.91220   0.41819   1.000
    O69     O    0.46975   0.92289   0.42736   1.000
    O70     O    0.53198   0.84630   0.33770   1.000
    O71     O    0.39043   0.93035   0.27464   1.000
    Zr72    Zr   0.95660   0.89289   0.38036   1.000
    O73     O    0.89044   0.93035   0.27464   1.000
    O74     O    0.94939   0.91220   0.41819   1.000
    O75     O    0.96975   0.92289   0.42736   1.000
    O76     O    0.03198   0.84630   0.33770   1.000
    Zr77    Zr   0.04342   0.10711   0.61961   1.000
    O78     O    0.96804   0.15370   0.66226   1.000
    O79     O    0.03027   0.07703   0.57261   1.000
    O80     O    0.05064   0.08772   0.58178   1.000
    O81     O    0.10958   0.06950   0.72526   1.000
    Zr82    Zr   0.40735   0.39334   0.88031   1.000
    O83     O    0.38585   0.41252   0.91807   1.000
    O84     O    0.35552   0.42323   0.92724   1.000
    O85     O    0.37640   0.34660   0.83765   1.000
    O86     O    0.50762   0.43071   0.77463   1.000
    Zr87    Zr   0.84708   0.61961   0.39316   1.000
    O88     O    0.79490   0.66226   0.34648   1.000
    O89     O    0.84456   0.58179   0.41239   1.000
    O90     O    0.81886   0.57261   0.42310   1.000
    O91     O    0.89455   0.72526   0.43060   1.000
loop_
    _geom_bond_atom_site_label_1
    _geom_bond_atom_site_label_2
    _geom_bond_distance
    _geom_bond_site_symmetry_2
    _ccdc_geom_bond_type
    Zr12   O13       1.01395      .   S
    N4     O13       1.96290      .   S
    Zr12   O14       0.70062      .   S
    N4     O14       2.33822      .   S
    Zr12   O15       1.26394      .   S
    N10    O15       2.60606      .   S
    Zr12   O16       2.15806      .   S
    N7     O16       5.32180  1_565   S
    Zr17   O18       1.26502      .   S
    N9     O18       2.60810      .   S
    Zr17   O19       2.15924      .   S
    N4     O19       5.32239      .   S
    Zr17   O20       0.70180      .   S
    N6     O20       2.34342  1_556   S
    Zr17   O21       1.01586      .   S
    N6     O21       1.96736  1_556   S
    Zr22   O23       2.15807      .   S
    N3     O23       5.32185  1_565   S
    Zr22   O24       1.26394      .   S
    N11    O24       2.60606      .   S
    Zr22   O25       0.70061      .   S
    N5     O25       2.33817      .   S
    Zr22   O26       1.01394      .   S
    N5     O26       1.96285      .   S
    Zr27   O28       1.01406      .   S
    N3     O28       1.96388  1_565   S
    Zr27   O29       0.70167      .   S
    N3     O29       2.33834  1_565   S
    Zr27   O30       2.15706      .   S
    N1     O30       5.32040  1_565   S
    Zr27   O31       1.26382      .   S
    N10    O31       2.60593      .   S
    Zr32   O33       1.26511      .   S
    N11    O33       2.60842      .   S
    Zr32   O34       2.15922  1_655   S
    N4     O34       5.32239      .   S
    Zr32   O35       1.01429      .   S
    N6     O35       1.96374      .   S
    Zr32   O36       0.69978      .   S
    N6     O36       2.34013      .   S
    Zr37   O38       1.26464      .   S
    N9     O38       2.60750      .   S
    Zr37   O39       2.15951      .   S
    N2     O39       5.32473  1_456   S
    Zr37   O40       1.01411      .   S
    N1     O40       1.96405  1_556   S
    Zr37   O41       0.70097      .   S
    N1     O41       2.33919  1_556   S
    Zr42   O43       2.15955      .   S
    N6     O43       5.32478  1_556   S
    Zr42   O44       1.26464      .   S
    N8     O44       2.60750      .   S
    Zr42   O45       1.01410      .   S
    N0     O45       1.96401  1_556   S
    Zr42   O46       0.70096      .   S
    N0     O46       2.33915  1_556   S
    Zr47   O48       2.15698      .   S
    N3     O48       5.31843      .   S
    Zr47   O49       1.01393      .   S
    N4     O49       1.96278      .   S
    Zr47   O50       0.70059      .   S
    N4     O50       2.33812      .   S
    Zr47   O51       1.26408      .   S
    N8     O51       2.60648      .   S
    Zr52   O53       0.70181      .   S
    N2     O53       2.34343  1_556   S
    Zr52   O54       1.01587      .   S
    N2     O54       1.96739  1_556   S
    Zr52   O55       2.15922  1_455   S
    N5     O55       5.32238      .   S
    Zr52   O56       1.26502      .   S
    N8     O56       2.60809      .   S
    Zr57   O58       2.15917      .   S
    N2     O58       5.32402      .   S
    Zr57   O59       0.70253      .   S
    N1     O59       2.34009  1_565   S
    Zr57   O60       1.01514      .   S
    N1     O60       1.96525  1_565   S
    Zr57   O61       1.26458      .   S
    N11    O61       2.60752      .   S
    Zr62   O63       1.26458      .   S
    N10    O63       2.60753      .   S
    Zr62   O64       2.15913      .   S
    N6     O64       5.32397  1_655   S
    Zr62   O65       0.70254      .   S
    N0     O65       2.34013  1_565   S
    Zr62   O66       1.01515      .   S
    N0     O66       1.96529  1_565   S
    Zr67   O68       0.70108      .   S
    N3     O68       2.33570      .   S
    Zr67   O69       1.01336      .   S
    N3     O69       1.96120      .   S
    Zr67   O70       1.26389      .   S
    N9     O70       2.60616      .   S
    Zr67   O71       2.15779      .   S
    N0     O71       5.32306  1_556   S
    Zr72   O73       2.15780      .   S
    N1     O73       5.32311  1_556   S
    Zr72   O74       0.70108      .   S
    N7     O74       2.33566  1_455   S
    Zr72   O75       1.01335      .   S
    N7     O75       1.96116  1_455   S
    Zr72   O76       1.26385  1_655   S
    N8     O76       2.60609      .   S
    Zr77   O78       1.26376  1_455   S
    N11    O78       2.60585      .   S
    Zr77   O79       1.01405      .   S
    N7     O79       1.96384  1_565   S
    Zr77   O80       0.70166      .   S
    N7     O80       2.33828  1_565   S
    Zr77   O81       2.15708      .   S
    N0     O81       5.32045  1_565   S
    Zr82   O83       0.69977      .   S
    N2     O83       2.34011      .   S
    Zr82   O84       1.01428      .   S
    N2     O84       1.96371      .   S
    Zr82   O85       1.26511      .   S
    N10    O85       2.60842      .   S
    Zr82   O86       2.15925      .   S
    N5     O86       5.32241      .   S
    Zr87   O88       1.26407      .   S
    N9     O88       2.60647      .   S
    Zr87   O89       0.70060      .   S
    N5     O89       2.33815      .   S
    Zr87   O90       1.01394      .   S
    N5     O90       1.96283      .   S
    Zr87   O91       2.15696      .   S
    N7     O91       5.31840  1_455   S
