# CIF file generated by openbabel 2.4.90, see http://openbabel.sf.net
data_I
_chemical_name_common ''
_cell_length_a 13.69
_cell_length_b 16.701
_cell_length_c 16.701
_cell_angle_alpha 87.613
_cell_angle_beta 78.271
_cell_angle_gamma 78.214
_space_group_name_H-M_alt 'P 1'
_space_group_name_Hall 'P 1'
loop_
    _symmetry_equiv_pos_as_xyz
    x,y,z
loop_
    _atom_site_label
    _atom_site_type_symbol
    _atom_site_fract_x
    _atom_site_fract_y
    _atom_site_fract_z
    _atom_site_occupancy
    Zr0     Zr   0.45659   0.89289   0.38036   1.000
    Zr1     Zr   0.95660   0.89289   0.38036   1.000
    Zr2     Zr   0.09267   0.60666   0.11965   1.000
    Zr3     Zr   0.59268   0.60666   0.11965   1.000
    Zr4     Zr   0.14647   0.11970   0.89290   1.000
    Zr5     Zr   0.64648   0.11970   0.89290   1.000
    Zr6     Zr   0.15294   0.38039   0.60681   1.000
    Zr7     Zr   0.65295   0.38039   0.60681   1.000
    Zr8     Zr   0.04342   0.10711   0.61961   1.000
    Zr9     Zr   0.54343   0.10711   0.61961   1.000
    Zr10    Zr   0.40735   0.39334   0.88031   1.000
    Zr11    Zr   0.90736   0.39334   0.88031   1.000
    Zr12    Zr   0.35355   0.88030   0.10702   1.000
    Zr13    Zr   0.85356   0.88030   0.10702   1.000
    Zr14    Zr   0.34707   0.61961   0.39316   1.000
    Zr15    Zr   0.84708   0.61961   0.39316   1.000
    N16     N    0.25001   0.99971   0.99984   1.000
    O17     O    0.28008   0.97420   0.04691   1.000
    O18     O    0.16996   0.04385   0.93153   1.000
    O19     O    0.17574   0.03189   0.83090   1.000
    O20     O    0.21993   0.02551   0.95290   1.000
    O21     O    0.33006   0.95586   0.06828   1.000
    O22     O    0.32427   0.96782   0.16892   1.000
    N23     N    0.75002   0.99971   0.99983   1.000
    O24     O    0.71994   0.02551   0.95289   1.000
    O25     O    0.78009   0.97420   0.04691   1.000
    O26     O    0.82428   0.96782   0.16891   1.000
    O27     O    0.66997   0.04385   0.93152   1.000
    O28     O    0.67575   0.03189   0.83090   1.000
    O29     O    0.83007   0.95586   0.06828   1.000
    N30     N    0.25001   0.50000   0.99969   1.000
    O31     O    0.09150   0.66896   0.03186   1.000
    O32     O    0.30369   0.45311   0.97418   1.000
    O33     O    0.19633   0.54688   0.02549   1.000
    O34     O    0.13568   0.56830   0.04385   1.000
    O35     O    0.36435   0.43170   0.95582   1.000
    O36     O    0.40853   0.33104   0.96780   1.000
    N37     N    0.50001   0.99985   0.49998   1.000
    O38     O    0.48290   0.95290   0.47437   1.000
    O39     O    0.44202   0.83092   0.46804   1.000
    O40     O    0.44217   0.93152   0.45601   1.000
    O41     O    0.51712   0.04695   0.52560   1.000
    O42     O    0.55786   0.06833   0.54395   1.000
    O43     O    0.55800   0.16893   0.53193   1.000
    N44     N    0.25001   0.50000   0.49998   1.000
    O45     O    0.29063   0.52561   0.45304   1.000
    O46     O    0.20939   0.47439   0.54692   1.000
    O47     O    0.39212   0.53192   0.33102   1.000
    O48     O    0.10790   0.46807   0.66894   1.000
    O49     O    0.15799   0.45603   0.56834   1.000
    O50     O    0.34203   0.54397   0.43163   1.000
    N51     N    0.75001   0.50000   0.49998   1.000
    O52     O    0.79064   0.52561   0.45304   1.000
    O53     O    0.70939   0.47439   0.54692   1.000
    O54     O    0.84203   0.54397   0.43163   1.000
    O55     O    0.65799   0.45603   0.56834   1.000
    O56     O    0.60790   0.46807   0.66894   1.000
    O57     O    0.89212   0.53193   0.33102   1.000
    N58     N    0.75002   0.50000   0.99969   1.000
    O59     O    0.69634   0.54689   0.02549   1.000
    O60     O    0.80369   0.45311   0.97418   1.000
    O61     O    0.63568   0.56830   0.04385   1.000
    O62     O    0.90853   0.33104   0.96780   1.000
    O63     O    0.86435   0.43170   0.95582   1.000
    O64     O    0.59150   0.66896   0.03186   1.000
    N65     N    0.00001   0.99985   0.49998   1.000
    O66     O    0.98291   0.95290   0.47437   1.000
    O67     O    0.01712   0.04695   0.52560   1.000
    O68     O    0.94217   0.93152   0.45601   1.000
    O69     O    0.94203   0.83092   0.46804   1.000
    O70     O    0.05785   0.06833   0.54395   1.000
    O71     O    0.05800   0.16893   0.53193   1.000
    N72     N    0.18742   0.74997   0.25000   1.000
    O73     O    0.15456   0.70014   0.20495   1.000
    O74     O    0.10737   0.79971   0.29504   1.000
    O75     O    0.24509   0.79501   0.20026   1.000
    O76     O    0.24270   0.70492   0.29981   1.000
    N77     N    0.68742   0.74997   0.25000   1.000
    O78     O    0.60737   0.79971   0.29504   1.000
    O79     O    0.74271   0.70492   0.29981   1.000
    O80     O    0.65457   0.70014   0.20495   1.000
    O81     O    0.74510   0.79501   0.20026   1.000
    N82     N    0.31260   0.25002   0.74992   1.000
    O83     O    0.25731   0.29508   0.70014   1.000
    O84     O    0.39265   0.20029   0.70491   1.000
    O85     O    0.34546   0.29986   0.79500   1.000
    O86     O    0.25493   0.20498   0.79968   1.000
    N87     N    0.81261   0.25002   0.74992   1.000
    O88     O    0.84546   0.29986   0.79500   1.000
    O89     O    0.75494   0.20498   0.79968   1.000
    O90     O    0.89266   0.20029   0.70491   1.000
    O91     O    0.75732   0.29508   0.70014   1.000
loop_
    _geom_bond_atom_site_label_1
    _geom_bond_atom_site_label_2
    _geom_bond_distance
    _geom_bond_site_symmetry_2
    _ccdc_geom_bond_type
    N16    O17       1.00062  1_556   S
    Zr12   O17       2.02820      .   S
    N16    O18       1.77600  1_565   S
    Zr4    O18       1.40508      .   S
    N16    O19       3.17794  1_565   S
    Zr8    O19       4.31416      .   S
    N16    O20       1.00020  1_565   S
    Zr4    O20       2.03030      .   S
    N16    O21       1.77643  1_556   S
    Zr12   O21       1.40193      .   S
    N16    O22       3.17991  1_556   S
    Zr0    O22       4.31557      .   S
    N23    O24       1.00017  1_565   S
    Zr5    O24       2.03028      .   S
    N23    O25       1.00065  1_556   S
    Zr13   O25       2.02822      .   S
    N23    O26       3.17994  1_556   S
    Zr1    O26       4.31560      .   S
    N23    O27       1.77597  1_565   S
    Zr5    O27       1.40506      .   S
    N23    O28       3.17791  1_565   S
    Zr9    O28       4.31413      .   S
    N23    O29       1.77646  1_556   S
    Zr13   O29       1.40195      .   S
    N30    O31       3.17983  1_556   S
    Zr13   O31       4.31901  1_655   S
    N30    O32       1.00005      .   S
    Zr10   O32       2.02856      .   S
    N30    O33       1.00160  1_556   S
    Zr2    O33       2.03174      .   S
    N30    O34       1.77943  1_556   S
    Zr2    O34       1.40362      .   S
    N30    O35       1.77815      .   S
    Zr10   O35       1.39954      .   S
    N30    O36       3.17952      .   S
    Zr5    O36       4.31834      .   S
    N37    O38       0.99828      .   S
    Zr0    O38       2.02672      .   S
    N37    O39       3.17612      .   S
    Zr14   O39       4.31395      .   S
    N37    O40       1.77319      .   S
    Zr0    O40       1.40217      .   S
    N37    O41       1.00037  1_565   S
    Zr9    O41       2.02812      .   S
    N37    O42       1.77504  1_565   S
    Zr9    O42       1.40334      .   S
    N37    O43       3.17844  1_565   S
    Zr7    O43       4.31614      .   S
    N44    O45       0.99935      .   S
    Zr14   O45       2.02786      .   S
    N44    O46       0.99946      .   S
    Zr6    O46       2.02791      .   S
    N44    O47       3.17781      .   S
    Zr3    O47       4.31848      .   S
    N44    O48       3.17784      .   S
    Zr11   O48       4.31844  1_655   S
    N44    O49       1.77567      .   S
    Zr6    O49       1.40123      .   S
    N44    O50       1.77562      .   S
    Zr14   O50       1.40118      .   S
    N51    O52       0.99939      .   S
    Zr15   O52       2.02788      .   S
    N51    O53       0.99942      .   S
    Zr7    O53       2.02788      .   S
    N51    O54       1.77563      .   S
    Zr15   O54       1.40119      .   S
    N51    O55       1.77566      .   S
    Zr7    O55       1.40122      .   S
    N51    O56       3.17783      .   S
    Zr10   O56       4.31849      .   S
    N51    O57       3.17782      .   S
    Zr2    O57       4.31844  1_455   S
    N58    O59       1.00159  1_556   S
    Zr3    O59       2.03172      .   S
    N58    O60       1.00006      .   S
    Zr11   O60       2.02858      .   S
    N58    O61       1.77944  1_556   S
    Zr3    O61       1.40360      .   S
    N58    O62       3.17951      .   S
    Zr4    O62       4.31826  1_455   S
    N58    O63       1.77814      .   S
    Zr11   O63       1.39956      .   S
    N58    O64       3.17984  1_556   S
    Zr12   O64       4.31909      .   S
    N65    O66       0.99825  1_455   S
    Zr1    O66       2.02670      .   S
    N65    O67       1.00034  1_565   S
    Zr8    O67       2.02809      .   S
    N65    O68       1.77315  1_455   S
    Zr1    O68       1.40216      .   S
    N65    O69       3.17610  1_455   S
    Zr15   O69       4.31393      .   S
    N65    O70       1.77500  1_565   S
    Zr8    O70       1.40333      .   S
    N65    O71       3.17841  1_565   S
    Zr6    O71       4.31611      .   S
    N72    O73       1.34308      .   S
    Zr2    O73       2.53004      .   S
    N72    O74       1.34225      .   S
    Zr1    O74       2.52769  1_655   S
    N72    O75       1.34287      .   S
    Zr12   O75       2.52928      .   S
    N72    O76       1.34241      .   S
    Zr14   O76       2.52815      .   S
    N77    O78       1.34228      .   S
    Zr0    O78       2.52778      .   S
    N77    O79       1.34240      .   S
    Zr15   O79       2.52815      .   S
    N77    O80       1.34309      .   S
    Zr3    O80       2.53004      .   S
    N77    O81       1.34287      .   S
    Zr13   O81       2.52927      .   S
    N82    O83       1.34213      .   S
    Zr6    O83       2.52788      .   S
    N82    O84       1.34212      .   S
    Zr9    O84       2.52763      .   S
    N82    O85       1.34331      .   S
    Zr10   O85       2.53022      .   S
    N82    O86       1.34295      .   S
    Zr4    O86       2.52916      .   S
    N87    O88       1.34331      .   S
    Zr11   O88       2.53022      .   S
    N87    O89       1.34295      .   S
    Zr5    O89       2.52915      .   S
    N87    O90       1.34209      .   S
    Zr8    O90       2.52753  1_455   S
    N87    O91       1.34213      .   S
    Zr7    O91       2.52788      .   S
