# CIF file generated by openbabel 2.4.90, see http://openbabel.sf.net
data_I
_chemical_name_common ''
_cell_length_a 14.074
_cell_length_b 16.943
_cell_length_c 16.943
_cell_angle_alpha 111.854
_cell_angle_beta 91.018
_cell_angle_gamma 91.021
_space_group_name_H-M_alt 'P 1'
_space_group_name_Hall 'P 1'
loop_
    _symmetry_equiv_pos_as_xyz
    x,y,z
loop_
    _atom_site_label
    _atom_site_type_symbol
    _atom_site_fract_x
    _atom_site_fract_y
    _atom_site_fract_z
    _atom_site_occupancy
    H0      H    0.03224   0.00615   0.14278   1.000
    H1      H    0.03224   0.00615   0.64277   1.000
    H2      H    0.03224   0.50614   0.14278   1.000
    H3      H    0.03224   0.50614   0.64277   1.000
    H4      H    0.53223   0.00614   0.14278   1.000
    H5      H    0.53223   0.00614   0.64277   1.000
    H6      H    0.53222   0.50613   0.14278   1.000
    H7      H    0.53223   0.50613   0.64277   1.000
    H8      H    0.43221   0.11830   0.21967   1.000
    H9      H    0.43222   0.11830   0.71966   1.000
    H10     H    0.43221   0.61830   0.21967   1.000
    H11     H    0.43221   0.61830   0.71966   1.000
    H12     H    0.93218   0.11830   0.21968   1.000
    H13     H    0.93218   0.11830   0.71967   1.000
    H14     H    0.93217   0.61830   0.21968   1.000
    H15     H    0.93218   0.61829   0.71967   1.000
    H16     H    0.37066   0.04777   0.25807   1.000
    H17     H    0.37066   0.04777   0.75806   1.000
    H18     H    0.37066   0.54776   0.25807   1.000
    H19     H    0.37066   0.54776   0.75806   1.000
    H20     H    0.87064   0.04775   0.25807   1.000
    H21     H    0.87064   0.04775   0.75800   1.000
    H22     H    0.87063   0.54774   0.25807   1.000
    H23     H    0.87063   0.54774   0.75800   1.000
    H24     H    0.41899   0.39546   0.20626   1.000
    H25     H    0.41899   0.39546   0.70625   1.000
    H26     H    0.41899   0.89545   0.20626   1.000
    H27     H    0.41899   0.89545   0.70625   1.000
    H28     H    0.91899   0.39545   0.20620   1.000
    H29     H    0.91900   0.39545   0.70620   1.000
    H30     H    0.91899   0.89544   0.20625   1.000
    H31     H    0.91899   0.89544   0.70624   1.000
    H32     H    0.01139   0.36323   0.13110   1.000
    H33     H    0.01139   0.36323   0.63118   1.000
    H34     H    0.01138   0.86322   0.13119   1.000
    H35     H    0.01139   0.86322   0.63118   1.000
    H36     H    0.51135   0.36322   0.13100   1.000
    H37     H    0.51135   0.36322   0.63118   1.000
    H38     H    0.51135   0.86321   0.13119   1.000
    H39     H    0.51135   0.86321   0.63118   1.000
    H40     H    0.21777   0.35720   0.49384   1.000
    H41     H    0.21778   0.35720   0.99383   1.000
    H42     H    0.21777   0.85719   0.49384   1.000
    H43     H    0.21777   0.85719   0.99383   1.000
    H44     H    0.71777   0.35720   0.49384   1.000
    H45     H    0.71777   0.35719   0.99380   1.000
    H46     H    0.71776   0.85719   0.49384   1.000
    H47     H    0.71776   0.85719   0.99384   1.000
    H48     H    0.31779   0.28032   0.38167   1.000
    H49     H    0.31779   0.28031   0.88160   1.000
    H50     H    0.31779   0.78031   0.38167   1.000
    H51     H    0.31779   0.78031   0.88160   1.000
    H52     H    0.81779   0.28032   0.38160   1.000
    H53     H    0.81779   0.28031   0.88167   1.000
    H54     H    0.81779   0.78031   0.38168   1.000
    H55     H    0.81779   0.78031   0.88167   1.000
    H56     H    0.37935   0.24192   0.45220   1.000
    H57     H    0.37935   0.24192   0.95200   1.000
    H58     H    0.37935   0.74191   0.45220   1.000
    H59     H    0.37935   0.74191   0.95200   1.000
    H60     H    0.87935   0.24192   0.45221   1.000
    H61     H    0.87935   0.24192   0.95220   1.000
    H62     H    0.87934   0.74192   0.45221   1.000
    H63     H    0.87934   0.74191   0.95220   1.000
    H64     H    0.33101   0.29373   0.10452   1.000
    H65     H    0.33101   0.29372   0.60451   1.000
    H66     H    0.33100   0.79372   0.10452   1.000
    H67     H    0.33100   0.79372   0.60451   1.000
    H68     H    0.83100   0.29373   0.10452   1.000
    H69     H    0.83100   0.29372   0.60451   1.000
    H70     H    0.83100   0.79372   0.10452   1.000
    H71     H    0.83100   0.79372   0.60451   1.000
    H72     H    0.23864   0.36878   0.13676   1.000
    H73     H    0.23864   0.36878   0.63675   1.000
    H74     H    0.23863   0.86877   0.13676   1.000
    H75     H    0.23863   0.86877   0.63675   1.000
    H76     H    0.73864   0.36878   0.13676   1.000
    H77     H    0.73864   0.36878   0.63675   1.000
    H78     H    0.73863   0.86877   0.13676   1.000
    H79     H    0.73863   0.86877   0.63675   1.000
    H80     H    0.46777   0.49385   0.35719   1.000
    H81     H    0.46778   0.49385   0.85718   1.000
    H82     H    0.46777   0.99384   0.35719   1.000
    H83     H    0.46777   0.99384   0.85718   1.000
    C84     C    0.80950   0.76103   0.93635   1.000
    C85     C    0.26305   0.31241   0.08440   1.000
    C86     C    0.26305   0.31241   0.58447   1.000
    C87     C    0.26304   0.81240   0.08448   1.000
    H88     H    0.96776   0.49384   0.35718   1.000
    H89     H    0.96776   0.49384   0.85717   1.000
    H90     H    0.96776   0.99383   0.35718   1.000
    H91     H    0.96776   0.99383   0.85717   1.000
    H92     H    0.06783   0.38169   0.28028   1.000
    H93     H    0.06783   0.38169   0.78027   1.000
    H94     H    0.06782   0.88168   0.28028   1.000
    H95     H    0.06782   0.88168   0.78020   1.000
    H96     H    0.56779   0.38168   0.28029   1.000
    H97     H    0.56779   0.38168   0.78028   1.000
    H98     H    0.56778   0.88168   0.28029   1.000
    H99     H    0.56779   0.88168   0.78028   1.000
    H100    H    0.12937   0.45224   0.24190   1.000
    H101    H    0.12937   0.45224   0.74189   1.000
    H102    H    0.12936   0.95223   0.24190   1.000
    H103    H    0.12937   0.95223   0.74189   1.000
    H104    H    0.62935   0.45222   0.24100   1.000
    H105    H    0.62935   0.45222   0.74180   1.000
    H106    H    0.62934   0.95221   0.24100   1.000
    H107    H    0.62934   0.95221   0.74189   1.000
    H108    H    0.08101   0.10454   0.29372   1.000
    H109    H    0.08102   0.10454   0.79371   1.000
    H110    H    0.08100   0.60453   0.29372   1.000
    H111    H    0.08101   0.60453   0.79371   1.000
    H112    H    0.58101   0.10453   0.29371   1.000
    H113    H    0.58101   0.10453   0.79300   1.000
    H114    H    0.58101   0.60453   0.29371   1.000
    H115    H    0.58101   0.60452   0.79370   1.000
    H116    H    0.48865   0.13677   0.36877   1.000
    H117    H    0.48866   0.13677   0.86876   1.000
    H118    H    0.48865   0.63676   0.36877   1.000
    H119    H    0.48865   0.63676   0.86876   1.000
    H120    H    0.98861   0.13676   0.36878   1.000
    H121    H    0.98862   0.13676   0.86877   1.000
    H122    H    0.98861   0.63675   0.36878   1.000
    H123    H    0.98861   0.63675   0.86877   1.000
    H124    H    0.28224   0.14279   0.00612   1.000
    H125    H    0.28224   0.14279   0.50611   1.000
    H126    H    0.28224   0.64278   0.00612   1.000
    H127    H    0.28223   0.64278   0.50611   1.000
    H128    H    0.78223   0.14279   0.00612   1.000
    H129    H    0.78223   0.14279   0.50611   1.000
    H130    H    0.78223   0.64278   0.00612   1.000
    H131    H    0.78223   0.64278   0.50611   1.000
    H132    H    0.18222   0.21967   0.11829   1.000
    H133    H    0.18222   0.21967   0.61828   1.000
    H134    H    0.18221   0.71967   0.11829   1.000
    H135    H    0.18221   0.71966   0.61828   1.000
    H136    H    0.68221   0.21967   0.11829   1.000
    H137    H    0.68221   0.21967   0.61828   1.000
    H138    H    0.68221   0.71967   0.11829   1.000
    H139    H    0.68221   0.71966   0.61828   1.000
    H140    H    0.12066   0.25807   0.04775   1.000
    H141    H    0.12066   0.25806   0.54774   1.000
    H142    H    0.12065   0.75806   0.04775   1.000
    H143    H    0.12066   0.75805   0.54774   1.000
    H144    H    0.62066   0.25807   0.04776   1.000
    H145    H    0.62065   0.25806   0.54775   1.000
    H146    H    0.62065   0.75806   0.04776   1.000
    H147    H    0.62065   0.75806   0.54775   1.000
    H148    H    0.16900   0.20626   0.39544   1.000
    H149    H    0.16900   0.20626   0.89543   1.000
    H150    H    0.16900   0.70626   0.39544   1.000
    H151    H    0.16900   0.70625   0.89540   1.000
    H152    H    0.66900   0.20626   0.39544   1.000
    H153    H    0.66900   0.20626   0.89544   1.000
    H154    H    0.66899   0.70625   0.39544   1.000
    H155    H    0.66900   0.70625   0.89544   1.000
    H156    H    0.26137   0.13121   0.36320   1.000
    H157    H    0.26137   0.13120   0.86319   1.000
    H158    H    0.26137   0.63120   0.36320   1.000
    H159    H    0.26137   0.63120   0.86319   1.000
    H160    H    0.76137   0.13121   0.36321   1.000
    H161    H    0.76137   0.13121   0.86320   1.000
    H162    H    0.76136   0.63120   0.36320   1.000
    H163    H    0.76136   0.63120   0.86320   1.000
    C164    C    0.44050   0.06362   0.23895   1.000
    C165    C    0.44050   0.06362   0.73894   1.000
    C166    C    0.44050   0.56361   0.23895   1.000
    C167    C    0.44050   0.56361   0.73894   1.000
    C168    C    0.94048   0.06361   0.23895   1.000
    C169    C    0.94048   0.06361   0.73894   1.000
    C170    C    0.94047   0.56361   0.23895   1.000
    C171    C    0.94047   0.56360   0.73894   1.000
    C172    C    0.48695   0.41550   0.18757   1.000
    C173    C    0.48695   0.41550   0.68756   1.000
    C174    C    0.48694   0.91549   0.18757   1.000
    C175    C    0.48695   0.91549   0.68756   1.000
    C176    C    0.98695   0.41550   0.18756   1.000
    C177    C    0.98695   0.41550   0.68755   1.000
    C178    C    0.98694   0.91549   0.18756   1.000
    C179    C    0.98695   0.91549   0.68755   1.000
    C180    C    0.30951   0.26104   0.43636   1.000
    C181    C    0.30950   0.26104   0.93635   1.000
    C182    C    0.30950   0.76103   0.43636   1.000
    C183    C    0.30950   0.76103   0.93635   1.000
    C184    C    0.80950   0.26104   0.43636   1.000
    C185    C    0.80950   0.26104   0.93635   1.000
    C186    C    0.80949   0.76103   0.43636   1.000
    C187    C    0.26304   0.81240   0.58447   1.000
    C188    C    0.76304   0.31241   0.08448   1.000
    C189    C    0.76304   0.31241   0.58447   1.000
    C190    C    0.76304   0.81240   0.08448   1.000
    C191    C    0.76304   0.81240   0.58447   1.000
    C192    C    0.05952   0.43638   0.26101   1.000
    C193    C    0.05953   0.43637   0.76100   1.000
    C194    C    0.05952   0.93637   0.26101   1.000
    C195    C    0.05953   0.93637   0.76100   1.000
    C196    C    0.55950   0.43637   0.26102   1.000
    C197    C    0.55950   0.43637   0.76101   1.000
    C198    C    0.55950   0.93636   0.26102   1.000
    C199    C    0.55950   0.93636   0.76101   1.000
    C200    C    0.01305   0.08449   0.31240   1.000
    C201    C    0.01306   0.08449   0.81239   1.000
    C202    C    0.01305   0.58448   0.31240   1.000
    C203    C    0.01305   0.58448   0.81239   1.000
    C204    C    0.51305   0.08449   0.31240   1.000
    C205    C    0.51305   0.08449   0.81238   1.000
    C206    C    0.51305   0.58449   0.31240   1.000
    C207    C    0.51305   0.58448   0.81239   1.000
    C208    C    0.19050   0.23895   0.06360   1.000
    C209    C    0.19051   0.23895   0.56359   1.000
    C210    C    0.19050   0.73894   0.06360   1.000
    C211    C    0.19050   0.73894   0.56359   1.000
    C212    C    0.69050   0.23895   0.06360   1.000
    C213    C    0.69050   0.23895   0.56360   1.000
    C214    C    0.69050   0.73894   0.06360   1.000
    C215    C    0.69049   0.73894   0.56360   1.000
    C216    C    0.23696   0.18758   0.41548   1.000
    C217    C    0.23696   0.18758   0.91547   1.000
    C218    C    0.23696   0.68757   0.41548   1.000
    C219    C    0.23696   0.68757   0.91547   1.000
    C220    C    0.73696   0.18758   0.41548   1.000
    C221    C    0.73696   0.18758   0.91548   1.000
    C222    C    0.73695   0.68757   0.41548   1.000
    C223    C    0.73695   0.68757   0.91548   1.000
    N224    N    0.46890   0.48978   0.16359   1.000
    N225    N    0.46891   0.48978   0.66359   1.000
    N226    N    0.46890   0.98977   0.16300   1.000
    N227    N    0.46891   0.98977   0.66359   1.000
    N228    N    0.96890   0.48979   0.16360   1.000
    N229    N    0.96890   0.48978   0.66359   1.000
    N230    N    0.96889   0.98978   0.16360   1.000
    N231    N    0.96889   0.98978   0.66358   1.000
    N232    N    0.28110   0.33639   0.01020   1.000
    N233    N    0.28109   0.33638   0.51019   1.000
    N234    N    0.28109   0.83638   0.01020   1.000
    N235    N    0.28108   0.83637   0.51019   1.000
    N236    N    0.78108   0.33638   0.01020   1.000
    N237    N    0.78109   0.33638   0.51019   1.000
    N238    N    0.78108   0.83638   0.01020   1.000
    N239    N    0.78109   0.83638   0.51019   1.000
    N240    N    0.03111   0.01020   0.33637   1.000
    N241    N    0.03111   0.01020   0.83635   1.000
    N242    N    0.03111   0.51020   0.33637   1.000
    N243    N    0.03111   0.51019   0.83636   1.000
    N244    N    0.53110   0.01021   0.33637   1.000
    N245    N    0.53110   0.01021   0.83636   1.000
    N246    N    0.53109   0.51020   0.33636   1.000
    N247    N    0.53109   0.51020   0.83636   1.000
    N248    N    0.21892   0.16360   0.48976   1.000
    N249    N    0.21893   0.16360   0.98970   1.000
    N250    N    0.21891   0.66359   0.48976   1.000
    N251    N    0.21892   0.66359   0.98975   1.000
    N252    N    0.71891   0.16360   0.48970   1.000
    N253    N    0.71891   0.16359   0.98975   1.000
    N254    N    0.71891   0.66360   0.48977   1.000
    N255    N    0.71891   0.66359   0.98976   1.000
loop_
    _geom_bond_atom_site_label_1
    _geom_bond_atom_site_label_2
    _geom_bond_distance
    _geom_bond_site_symmetry_2
    _ccdc_geom_bond_type
    H124   N249      1.03496  1_554   S
    H126   N251      1.03465  1_554   S
    H128   N253      1.03465  1_554   S
    H130   N255      1.03458  1_554   S
    N232   C85       1.48260      .   S
    N232   C181      1.48399  1_554   S
    N232   H41       1.03465  1_554   S
    N234   C87       1.48383      .   S
    N234   C183      1.48399  1_554   S
    N234   H43       1.03465  1_554   S
    N236   C188      1.48376      .   S
    N236   C185      1.48399  1_554   S
    N236   H45       1.03483  1_554   S
    N238   C190      1.48382      .   S
    N238   C84       1.48400  1_554   S
    N238   H47       1.03457  1_554   S
    H142   C210      1.10000      .   S
    H140   C208      1.10000      .   S
    H144   C212      1.09996      .   S
    H146   C214      1.09997      .   S
    C212   C188      1.52665      .   S
    C212   H136      1.09851      .   S
    C212   N253      1.48400  1_554   S
    C214   C190      1.52665      .   S
    C214   H138      1.09851      .   S
    C214   N255      1.48391  1_554   S
    C210   C87       1.52666      .   S
    C210   H134      1.09851      .   S
    C210   N251      1.48400  1_554   S
    C208   C85       1.52678      .   S
    C208   H132      1.09851      .   S
    C208   N249      1.48444  1_554   S
    C85    H64       1.10035      .   S
    C85    H72       1.09949      .   S
    C190   H70       1.09982      .   S
    C190   H78       1.09883      .   S
    C188   H68       1.09983      .   S
    C188   H76       1.09884      .   S
    C87    H66       1.09981      .   S
    C87    H74       1.09884      .   S
    H36    C172      1.10074      .   S
    H32    C176      1.09979  1_455   S
    H38    C174      1.09889      .   S
    H34    C178      1.09892  1_455   S
    H2     N228      1.03499  1_455   S
    H4     N226      1.03021  1_545   S
    H6     N224      1.03457      .   S
    H0     N230      1.03518  1_445   S
    N226   C174      1.48979      .   S
    N226   C164      1.48944  1_565   S
    N224   C172      1.48389      .   S
    N224   C166      1.48380      .   S
    N228   C176      1.48384      .   S
    N228   C170      1.48375      .   S
    N230   C178      1.48380      .   S
    N230   C168      1.48379  1_565   S
    C178   H30       1.09986      .   S
    C178   C194      1.52691  1_655   S
    C176   H28       1.09948      .   S
    C176   C192      1.52690  1_655   S
    C174   H26       1.09981      .   S
    C174   C198      1.52667      .   S
    C172   H24       1.09983      .   S
    C172   C196      1.52668      .   S
    H10    C166      1.09849      .   S
    H8     C164      1.09848      .   S
    H12    C168      1.09843      .   S
    H14    C170      1.09842      .   S
    C166   H18       1.09998      .   S
    C166   C206      1.52665      .   S
    C164   H16       1.09997      .   S
    C164   C204      1.52667      .   S
    C168   H20       1.10002      .   S
    C168   C200      1.52690  1_655   S
    C170   H22       1.10000      .   S
    C170   C202      1.52693  1_655   S
    H104   C196      1.10618      .   S
    H106   C198      1.10619      .   S
    H102   C194      1.09994      .   S
    H100   C192      1.09995      .   S
    C194   H94       1.09841      .   S
    C194   N240      1.48388  1_565   S
    C192   H92       1.09843      .   S
    C192   N242      1.48378      .   S
    C198   H98       1.09838      .   S
    C198   N244      1.48381  1_565   S
    C196   H96       1.09836      .   S
    C196   N246      1.48367      .   S
    H112   C204      1.09982      .   S
    H114   C206      1.09982      .   S
    H108   C200      1.09979      .   S
    H110   C202      1.09980      .   S
    C206   N246      1.48378      .   S
    C206   H118      1.09879      .   S
    C204   N244      1.48383      .   S
    C204   H116      1.09879      .   S
    C202   N242      1.48384      .   S
    C202   H122      1.09902  1_455   S
    C200   N240      1.48388      .   S
    C200   H120      1.09901  1_455   S
    N246   H80       1.03465      .   S
    N244   H82       1.03479  1_545   S
    N240   H90       1.03511  1_445   S
    N242   H88       1.03497  1_455   S
    H156   C216      1.09883      .   S
    H158   C218      1.09883      .   S
    H162   C222      1.09886      .   S
    H160   C220      1.09876      .   S
    H52    C184      1.09964      .   S
    H48    C180      1.09850      .   S
    H50    C182      1.09852      .   S
    H54    C186      1.09834      .   S
    H152   C220      1.09981      .   S
    H150   C218      1.09982      .   S
    H154   C222      1.09981      .   S
    H148   C216      1.09982      .   S
    C222   C186      1.52665      .   S
    C222   N254      1.48392      .   S
    C220   C184      1.52665      .   S
    C220   N252      1.48285      .   S
    C218   C182      1.52664      .   S
    C218   N250      1.48389      .   S
    C216   C180      1.52666      .   S
    C216   N248      1.48382      .   S
    C182   H58       1.09994      .   S
    C182   N235      1.48373      .   S
    C180   H56       1.09995      .   S
    C180   N233      1.48373      .   S
    C184   H60       1.10000      .   S
    C184   N237      1.48373      .   S
    C186   H62       1.10000      .   S
    C186   N239      1.48374      .   S
    N252   H129      1.03500      .   S
    N252   C213      1.48436      .   S
    N250   H127      1.03462      .   S
    N250   C211      1.48374      .   S
    N248   H125      1.03461      .   S
    N248   C209      1.48373      .   S
    N254   H131      1.03456      .   S
    N254   C215      1.48372      .   S
    H46    N239      1.03461      .   S
    H44    N237      1.03462      .   S
    H42    N235      1.03462      .   S
    H40    N233      1.03462      .   S
    N237   C189      1.48382      .   S
    N239   C191      1.48388      .   S
    N235   C187      1.48376      .   S
    N233   C86       1.48382      .   S
    H143   C211      1.09999      .   S
    H141   C209      1.10000      .   S
    H147   C215      1.10000      .   S
    H145   C213      1.10000      .   S
    C211   C187      1.52665      .   S
    C211   H135      1.09850      .   S
    C209   C86       1.52666      .   S
    C209   H133      1.09850      .   S
    C215   C191      1.52667      .   S
    C215   H139      1.09835      .   S
    C213   C189      1.52667      .   S
    C213   H137      1.09834      .   S
    C191   H71       1.09982      .   S
    C191   H79       1.09883      .   S
    C189   H69       1.09981      .   S
    C189   H77       1.09884      .   S
    C187   H67       1.09981      .   S
    C187   H75       1.09886      .   S
    C86    H65       1.09981      .   S
    C86    H73       1.09885      .   S
    H37    C173      1.09889      .   S
    H39    C175      1.09888      .   S
    H35    C179      1.09891  1_455   S
    H33    C177      1.09891  1_455   S
    H1     N231      1.03514  1_445   S
    H3     N229      1.03502  1_455   S
    H5     N227      1.03476  1_545   S
    H7     N225      1.03461      .   S
    N231   C179      1.48386      .   S
    N231   C169      1.48386  1_565   S
    N229   C177      1.48379      .   S
    N229   C171      1.48372      .   S
    N227   C175      1.48387      .   S
    N227   C165      1.48384  1_565   S
    N225   C173      1.48382      .   S
    N225   C167      1.48375      .   S
    C179   H31       1.09988      .   S
    C179   C195      1.52691  1_655   S
    C177   H29       1.09957      .   S
    C177   C193      1.52690  1_655   S
    C175   H27       1.09981      .   S
    C175   C199      1.52665      .   S
    C173   H25       1.09982      .   S
    C173   C197      1.52667      .   S
    H11    C167      1.09847      .   S
    H9     C165      1.09846      .   S
    H15    C171      1.09841      .   S
    H13    C169      1.09841      .   S
    C171   H23       1.09961      .   S
    C171   C203      1.52690  1_655   S
    C169   H21       1.09961      .   S
    C169   C201      1.52689  1_655   S
    C167   H19       1.09997      .   S
    C167   C207      1.52667      .   S
    C165   H17       1.09997      .   S
    C165   C205      1.52655      .   S
    H105   C197      1.10058      .   S
    H107   C199      1.09999      .   S
    H101   C193      1.09995      .   S
    H103   C195      1.09994      .   S
    C195   H95       1.09770      .   S
    C195   N241      1.48381  1_565   S
    C193   H93       1.09841      .   S
    C193   N243      1.48382      .   S
    C197   H97       1.09838      .   S
    C197   N247      1.48373      .   S
    C199   H99       1.09839      .   S
    C199   N245      1.48377  1_565   S
    H113   C205      1.10477      .   S
    H115   C207      1.09982      .   S
    H109   C201      1.09979      .   S
    H111   C203      1.09979      .   S
    C205   N245      1.48388      .   S
    C205   H117      1.09889      .   S
    C201   N241      1.48382      .   S
    C201   H121      1.09901  1_455   S
    C207   N247      1.48383      .   S
    C207   H119      1.09879      .   S
    C203   N243      1.48389      .   S
    C203   H123      1.09902  1_455   S
    N241   H91       1.03516  1_445   S
    N243   H89       1.03494  1_455   S
    N247   H81       1.03462      .   S
    N245   H83       1.03484  1_545   S
    H159   C219      1.09883      .   S
    H157   C217      1.09885      .   S
    H161   C221      1.09882      .   S
    H163   C223      1.09883      .   S
    H49    C181      1.09948      .   S
    H51    C183      1.09948      .   S
    H53    C185      1.09836      .   S
    H55    C84       1.09835      .   S
    H151   C219      1.10004      .   S
    H149   C217      1.09983      .   S
    H155   C223      1.09981      .   S
    H153   C221      1.09981      .   S
    C219   C183      1.52665      .   S
    C219   N251      1.48382      .   S
    C217   C181      1.52666      .   S
    C217   N249      1.48296      .   S
    C223   C84       1.52667      .   S
    C223   N255      1.48384      .   S
    C221   C185      1.52667      .   S
    C221   N253      1.48373      .   S
    C181   H57       1.09888      .   S
    C183   H59       1.09888      .   S
    C185   H61       1.10000      .   S
    C84    H63       1.10000      .   S
