# CIF file generated by openbabel 2.4.90, see http://openbabel.sf.net
data_I
_chemical_name_common ''
_cell_length_a 14.074
_cell_length_b 16.943
_cell_length_c 16.943
_cell_angle_alpha 111.854
_cell_angle_beta 91.018
_cell_angle_gamma 91.021
_space_group_name_H-M_alt 'P 1'
_space_group_name_Hall 'P 1'
loop_
    _symmetry_equiv_pos_as_xyz
    x,y,z
loop_
    _atom_site_label
    _atom_site_type_symbol
    _atom_site_fract_x
    _atom_site_fract_y
    _atom_site_fract_z
    _atom_site_occupancy
    C0      C    0.37500   0.46380   0.03610   1.000
    C1      C    0.37500   0.46379   0.53618   1.000
    C2      C    0.37500   0.96379   0.03619   1.000
    C3      C    0.37500   0.96379   0.53618   1.000
    C4      C    0.87499   0.46380   0.03619   1.000
    C5      C    0.87499   0.46380   0.53618   1.000
    C6      C    0.87498   0.96379   0.03619   1.000
    C7      C    0.87498   0.96379   0.53618   1.000
    C8      C    0.12502   0.03619   0.46378   1.000
    C9      C    0.12502   0.03619   0.96377   1.000
    C10     C    0.12501   0.53618   0.46378   1.000
    C11     C    0.12501   0.53618   0.96377   1.000
    C12     C    0.62500   0.03619   0.46378   1.000
    C13     C    0.62501   0.03619   0.96377   1.000
    C14     C    0.62500   0.53619   0.46378   1.000
    C15     C    0.62500   0.53618   0.96377   1.000
    C16     C    0.03224   0.00615   0.14278   1.000
    C17     C    0.03224   0.00615   0.64277   1.000
    C18     C    0.03224   0.50614   0.14278   1.000
    C19     C    0.03224   0.50614   0.64277   1.000
    C20     C    0.53223   0.00614   0.14278   1.000
    C21     C    0.53223   0.00614   0.64277   1.000
    C22     C    0.53222   0.50613   0.14278   1.000
    C23     C    0.53223   0.50613   0.64277   1.000
    C24     C    0.43221   0.11830   0.21967   1.000
    C25     C    0.43222   0.11830   0.71966   1.000
    C26     C    0.43221   0.61830   0.21967   1.000
    C27     C    0.43221   0.61830   0.71966   1.000
    C28     C    0.93218   0.11830   0.21968   1.000
    C29     C    0.93218   0.11830   0.71967   1.000
    C30     C    0.93217   0.61830   0.21968   1.000
    C31     C    0.93218   0.61829   0.71967   1.000
    C32     C    0.37066   0.04777   0.25807   1.000
    C33     C    0.37066   0.04777   0.75806   1.000
    C34     C    0.37066   0.54776   0.25807   1.000
    C35     C    0.37066   0.54776   0.75806   1.000
    C36     C    0.87064   0.04775   0.25807   1.000
    C37     C    0.87064   0.04775   0.75800   1.000
    C38     C    0.87063   0.54774   0.25807   1.000
    C39     C    0.87063   0.54774   0.75800   1.000
    C40     C    0.41899   0.39546   0.20626   1.000
    C41     C    0.41899   0.39546   0.70625   1.000
    C42     C    0.41899   0.89545   0.20626   1.000
    C43     C    0.41899   0.89545   0.70625   1.000
    C44     C    0.91899   0.39545   0.20620   1.000
    C45     C    0.91900   0.39545   0.70620   1.000
    C46     C    0.91899   0.89544   0.20625   1.000
    C47     C    0.91899   0.89544   0.70624   1.000
    C48     C    0.01139   0.36323   0.13110   1.000
    C49     C    0.01139   0.36323   0.63118   1.000
    C50     C    0.01138   0.86322   0.13119   1.000
    C51     C    0.01139   0.86322   0.63118   1.000
    C52     C    0.51135   0.36322   0.13100   1.000
    C53     C    0.51135   0.36322   0.63118   1.000
    C54     C    0.51135   0.86321   0.13119   1.000
    C55     C    0.51135   0.86321   0.63118   1.000
    C56     C    0.21777   0.35720   0.49384   1.000
    C57     C    0.21778   0.35720   0.99383   1.000
    C58     C    0.21777   0.85719   0.49384   1.000
    C59     C    0.21777   0.85719   0.99383   1.000
    C60     C    0.71777   0.35720   0.49384   1.000
    C61     C    0.71777   0.35719   0.99380   1.000
    C62     C    0.71776   0.85719   0.49384   1.000
    C63     C    0.71776   0.85719   0.99384   1.000
    C64     C    0.31779   0.28032   0.38167   1.000
    C65     C    0.31779   0.28031   0.88160   1.000
    C66     C    0.31779   0.78031   0.38167   1.000
    C67     C    0.31779   0.78031   0.88160   1.000
    C68     C    0.81779   0.28032   0.38160   1.000
    C69     C    0.81779   0.28031   0.88167   1.000
    C70     C    0.81779   0.78031   0.38168   1.000
    C71     C    0.81779   0.78031   0.88167   1.000
    C72     C    0.37935   0.24192   0.45220   1.000
    C73     C    0.37935   0.24192   0.95200   1.000
    C74     C    0.37935   0.74191   0.45220   1.000
    C75     C    0.37935   0.74191   0.95200   1.000
    C76     C    0.87935   0.24192   0.45221   1.000
    C77     C    0.87935   0.24192   0.95220   1.000
    C78     C    0.87934   0.74192   0.45221   1.000
    C79     C    0.87934   0.74191   0.95220   1.000
    C80     C    0.33101   0.29373   0.10452   1.000
    C81     C    0.33101   0.29372   0.60451   1.000
    C82     C    0.33100   0.79372   0.10452   1.000
    C83     C    0.33100   0.79372   0.60451   1.000
    C84     C    0.83100   0.29373   0.10452   1.000
    C85     C    0.83100   0.29372   0.60451   1.000
    C86     C    0.83100   0.79372   0.10452   1.000
    C87     C    0.83100   0.79372   0.60451   1.000
    C88     C    0.23864   0.36878   0.13676   1.000
    C89     C    0.23864   0.36878   0.63675   1.000
    C90     C    0.23863   0.86877   0.13676   1.000
    C91     C    0.23863   0.86877   0.63675   1.000
    C92     C    0.73864   0.36878   0.13676   1.000
    C93     C    0.73864   0.36878   0.63675   1.000
    C94     C    0.73863   0.86877   0.13676   1.000
    C95     C    0.73863   0.86877   0.63675   1.000
    C96     C    0.46777   0.49385   0.35719   1.000
    C97     C    0.46778   0.49385   0.85718   1.000
    C98     C    0.46777   0.99384   0.35719   1.000
    C99     C    0.46777   0.99384   0.85718   1.000
    C100    C    0.96776   0.49384   0.35718   1.000
    C101    C    0.96776   0.49384   0.85717   1.000
    C102    C    0.96776   0.99383   0.35718   1.000
    C103    C    0.96776   0.99383   0.85717   1.000
    C104    C    0.06783   0.38169   0.28028   1.000
    C105    C    0.06783   0.38169   0.78027   1.000
    C106    C    0.06782   0.88168   0.28028   1.000
    C107    C    0.06782   0.88168   0.78020   1.000
    C108    C    0.56779   0.38168   0.28029   1.000
    C109    C    0.56779   0.38168   0.78028   1.000
    C110    C    0.56778   0.88168   0.28029   1.000
    C111    C    0.56779   0.88168   0.78028   1.000
    C112    C    0.12937   0.45224   0.24190   1.000
    C113    C    0.12937   0.45224   0.74189   1.000
    C114    C    0.12936   0.95223   0.24190   1.000
    C115    C    0.12937   0.95223   0.74189   1.000
    C116    C    0.62935   0.45222   0.24100   1.000
    C117    C    0.62935   0.45222   0.74180   1.000
    C118    C    0.62934   0.95221   0.24100   1.000
    C119    C    0.62934   0.95221   0.74189   1.000
    C120    C    0.08101   0.10454   0.29372   1.000
    C121    C    0.08102   0.10454   0.79371   1.000
    C122    C    0.08100   0.60453   0.29372   1.000
    C123    C    0.08101   0.60453   0.79371   1.000
    C124    C    0.58101   0.10453   0.29371   1.000
    C125    C    0.58101   0.10453   0.79300   1.000
    C126    C    0.58101   0.60453   0.29371   1.000
    C127    C    0.58101   0.60452   0.79370   1.000
    C128    C    0.48865   0.13677   0.36877   1.000
    C129    C    0.48866   0.13677   0.86876   1.000
    C130    C    0.48865   0.63676   0.36877   1.000
    C131    C    0.48865   0.63676   0.86876   1.000
    C132    C    0.98861   0.13676   0.36878   1.000
    C133    C    0.98862   0.13676   0.86877   1.000
    C134    C    0.98861   0.63675   0.36878   1.000
    C135    C    0.98861   0.63675   0.86877   1.000
    C136    C    0.28224   0.14279   0.00612   1.000
    C137    C    0.28224   0.14279   0.50611   1.000
    C138    C    0.28224   0.64278   0.00612   1.000
    C139    C    0.28223   0.64278   0.50611   1.000
    C140    C    0.78223   0.14279   0.00612   1.000
    C141    C    0.78223   0.14279   0.50611   1.000
    C142    C    0.78223   0.64278   0.00612   1.000
    C143    C    0.78223   0.64278   0.50611   1.000
    C144    C    0.18222   0.21967   0.11829   1.000
    C145    C    0.18222   0.21967   0.61828   1.000
    C146    C    0.18221   0.71967   0.11829   1.000
    C147    C    0.18221   0.71966   0.61828   1.000
    C148    C    0.68221   0.21967   0.11829   1.000
    C149    C    0.68221   0.21967   0.61828   1.000
    C150    C    0.68221   0.71967   0.11829   1.000
    C151    C    0.68221   0.71966   0.61828   1.000
    C152    C    0.12066   0.25807   0.04775   1.000
    C153    C    0.12066   0.25806   0.54774   1.000
    C154    C    0.12065   0.75806   0.04775   1.000
    C155    C    0.12066   0.75805   0.54774   1.000
    C156    C    0.62066   0.25807   0.04776   1.000
    C157    C    0.62065   0.25806   0.54775   1.000
    C158    C    0.62065   0.75806   0.04776   1.000
    C159    C    0.62065   0.75806   0.54775   1.000
    C160    C    0.16900   0.20626   0.39544   1.000
    C161    C    0.16900   0.20626   0.89543   1.000
    C162    C    0.16900   0.70626   0.39544   1.000
    C163    C    0.16900   0.70625   0.89540   1.000
    C164    C    0.66900   0.20626   0.39544   1.000
    C165    C    0.66900   0.20626   0.89544   1.000
    C166    C    0.66899   0.70625   0.39544   1.000
    C167    C    0.66900   0.70625   0.89544   1.000
    C168    C    0.26137   0.13121   0.36320   1.000
    C169    C    0.26137   0.13120   0.86319   1.000
    C170    C    0.26137   0.63120   0.36320   1.000
    C171    C    0.26137   0.63120   0.86319   1.000
    C172    C    0.76137   0.13121   0.36321   1.000
    C173    C    0.76137   0.13121   0.86320   1.000
    C174    C    0.76136   0.63120   0.36320   1.000
    C175    C    0.76136   0.63120   0.86320   1.000
    C176    C    0.44050   0.06362   0.23895   1.000
    C177    C    0.44050   0.06362   0.73894   1.000
    C178    C    0.44050   0.56361   0.23895   1.000
    C179    C    0.44050   0.56361   0.73894   1.000
    C180    C    0.94048   0.06361   0.23895   1.000
    C181    C    0.94048   0.06361   0.73894   1.000
    C182    C    0.94047   0.56361   0.23895   1.000
    C183    C    0.94047   0.56360   0.73894   1.000
    C184    C    0.48695   0.41550   0.18757   1.000
    C185    C    0.48695   0.41550   0.68756   1.000
    C186    C    0.48694   0.91549   0.18757   1.000
    C187    C    0.48695   0.91549   0.68756   1.000
    C188    C    0.98695   0.41550   0.18756   1.000
    C189    C    0.98695   0.41550   0.68755   1.000
    C190    C    0.98694   0.91549   0.18756   1.000
    C191    C    0.98695   0.91549   0.68755   1.000
    C192    C    0.30951   0.26104   0.43636   1.000
    C193    C    0.30950   0.26104   0.93635   1.000
    C194    C    0.30950   0.76103   0.43636   1.000
    C195    C    0.30950   0.76103   0.93635   1.000
    C196    C    0.80950   0.26104   0.43636   1.000
    C197    C    0.80950   0.26104   0.93635   1.000
    C198    C    0.80949   0.76103   0.43636   1.000
    C199    C    0.80950   0.76103   0.93635   1.000
    C200    C    0.26305   0.31241   0.08440   1.000
    C201    C    0.26305   0.31241   0.58447   1.000
    C202    C    0.26304   0.81240   0.08448   1.000
    C203    C    0.26304   0.81240   0.58447   1.000
    C204    C    0.76304   0.31241   0.08448   1.000
    C205    C    0.76304   0.31241   0.58447   1.000
    C206    C    0.76304   0.81240   0.08448   1.000
    C207    C    0.76304   0.81240   0.58447   1.000
    C208    C    0.05952   0.43638   0.26101   1.000
    C209    C    0.05953   0.43637   0.76100   1.000
    C210    C    0.05952   0.93637   0.26101   1.000
    C211    C    0.05953   0.93637   0.76100   1.000
    C212    C    0.55950   0.43637   0.26102   1.000
    C213    C    0.55950   0.43637   0.76101   1.000
    C214    C    0.55950   0.93636   0.26102   1.000
    C215    C    0.55950   0.93636   0.76101   1.000
    C216    C    0.01305   0.08449   0.31240   1.000
    C217    C    0.01306   0.08449   0.81239   1.000
    C218    C    0.01305   0.58448   0.31240   1.000
    C219    C    0.01305   0.58448   0.81239   1.000
    C220    C    0.51305   0.08449   0.31240   1.000
    C221    C    0.51305   0.08449   0.81238   1.000
    C222    C    0.51305   0.58449   0.31240   1.000
    C223    C    0.51305   0.58448   0.81239   1.000
    C224    C    0.19050   0.23895   0.06360   1.000
    C225    C    0.19051   0.23895   0.56359   1.000
    C226    C    0.19050   0.73894   0.06360   1.000
    C227    C    0.19050   0.73894   0.56359   1.000
    C228    C    0.69050   0.23895   0.06360   1.000
    C229    C    0.69050   0.23895   0.56360   1.000
    C230    C    0.69050   0.73894   0.06360   1.000
    C231    C    0.69049   0.73894   0.56360   1.000
    C232    C    0.23696   0.18758   0.41548   1.000
    C233    C    0.23696   0.18758   0.91547   1.000
    C234    C    0.23696   0.68757   0.41548   1.000
    C235    C    0.23696   0.68757   0.91547   1.000
    C236    C    0.73696   0.18758   0.41548   1.000
    C237    C    0.73696   0.18758   0.91548   1.000
    C238    C    0.73695   0.68757   0.41548   1.000
    C239    C    0.73695   0.68757   0.91548   1.000
    C240    C    0.21176   0.04754   0.12344   1.000
    C241    C    0.21176   0.04754   0.62340   1.000
    C242    C    0.21176   0.54753   0.12344   1.000
    C243    C    0.21176   0.54753   0.62340   1.000
    C244    C    0.71175   0.04754   0.12344   1.000
    C245    C    0.71175   0.04753   0.62340   1.000
    C246    C    0.71174   0.54753   0.12344   1.000
    C247    C    0.71175   0.54753   0.62340   1.000
    C248    C    0.03826   0.37653   0.45244   1.000
    C249    C    0.03826   0.37653   0.95243   1.000
    C250    C    0.03826   0.87653   0.45244   1.000
    C251    C    0.03826   0.87652   0.95243   1.000
    C252    C    0.53825   0.37653   0.45244   1.000
    C253    C    0.53825   0.37653   0.95243   1.000
    C254    C    0.53824   0.87653   0.45244   1.000
    C255    C    0.53824   0.87652   0.95243   1.000
    C256    C    0.28826   0.45245   0.37652   1.000
    C257    C    0.28826   0.45245   0.87651   1.000
    C258    C    0.28825   0.95244   0.37652   1.000
    C259    C    0.28825   0.95244   0.87651   1.000
    C260    C    0.78824   0.45245   0.37652   1.000
    C261    C    0.78824   0.45244   0.87651   1.000
    C262    C    0.78824   0.95244   0.37652   1.000
    C263    C    0.78824   0.95244   0.87651   1.000
    C264    C    0.46176   0.12346   0.04752   1.000
    C265    C    0.46176   0.12345   0.54751   1.000
    C266    C    0.46176   0.62345   0.04752   1.000
    C267    C    0.46176   0.62345   0.54751   1.000
    C268    C    0.96174   0.12346   0.04753   1.000
    C269    C    0.96175   0.12345   0.54752   1.000
    C270    C    0.96174   0.62345   0.04750   1.000
    C271    C    0.96174   0.62345   0.54752   1.000
    C272    C    0.46890   0.48978   0.16359   1.000
    C273    C    0.46891   0.48978   0.66359   1.000
    C274    C    0.46890   0.98977   0.16300   1.000
    C275    C    0.46891   0.98977   0.66359   1.000
    C276    C    0.96890   0.48979   0.16360   1.000
    C277    C    0.96890   0.48978   0.66359   1.000
    C278    C    0.96889   0.98978   0.16360   1.000
    C279    C    0.96889   0.98978   0.66358   1.000
    C280    C    0.28110   0.33639   0.01020   1.000
    C281    C    0.28109   0.33638   0.51019   1.000
    C282    C    0.28109   0.83638   0.01020   1.000
    C283    C    0.28108   0.83637   0.51019   1.000
    C284    C    0.78108   0.33638   0.01020   1.000
    C285    C    0.78109   0.33638   0.51019   1.000
    C286    C    0.78108   0.83638   0.01020   1.000
    C287    C    0.78109   0.83638   0.51019   1.000
    C288    C    0.03111   0.01020   0.33637   1.000
    C289    C    0.03111   0.01020   0.83635   1.000
    C290    C    0.03111   0.51020   0.33637   1.000
    C291    C    0.03111   0.51019   0.83636   1.000
    C292    C    0.53110   0.01021   0.33637   1.000
    C293    C    0.53110   0.01021   0.83636   1.000
    C294    C    0.53109   0.51020   0.33636   1.000
    C295    C    0.53109   0.51020   0.83636   1.000
    C296    C    0.21892   0.16360   0.48976   1.000
    C297    C    0.21893   0.16360   0.98970   1.000
    C298    C    0.21891   0.66359   0.48976   1.000
    C299    C    0.21892   0.66359   0.98975   1.000
    C300    C    0.71891   0.16360   0.48970   1.000
    C301    C    0.71891   0.16359   0.98975   1.000
    C302    C    0.71891   0.66360   0.48977   1.000
    C303    C    0.71891   0.66359   0.98976   1.000
    O304    O    0.25058   0.15320   0.99791   1.000
    O305    O    0.25058   0.65319   0.99793   1.000
    O306    O    0.75057   0.15319   0.99793   1.000
    O307    O    0.75057   0.65319   0.99794   1.000
    O308    O    0.32805   0.40010   0.02315   1.000
    O309    O    0.27207   0.32440   0.04730   1.000
    O310    O    0.29530   0.29871   0.97327   1.000
    O311    O    0.24944   0.34679   0.00201   1.000
    O312    O    0.32804   0.90009   0.02319   1.000
    O313    O    0.27207   0.82439   0.04734   1.000
    O314    O    0.29529   0.79870   0.97327   1.000
    O315    O    0.24943   0.84679   0.00201   1.000
    O316    O    0.82803   0.40009   0.02319   1.000
    O317    O    0.77206   0.32440   0.04734   1.000
    O318    O    0.79529   0.29871   0.97327   1.000
    O319    O    0.74942   0.34679   0.00200   1.000
    O320    O    0.82803   0.90009   0.02319   1.000
    O321    O    0.77206   0.82439   0.04734   1.000
    O322    O    0.79529   0.79870   0.97327   1.000
    O323    O    0.74942   0.84678   0.00202   1.000
    O324    O    0.29338   0.50567   0.07977   1.000
    O325    O    0.42195   0.47679   0.09984   1.000
    O326    O    0.45662   0.42016   0.99426   1.000
    O327    O    0.79337   0.00567   0.07981   1.000
    O328    O    0.92194   0.97679   0.09989   1.000
    O329    O    0.95662   0.92016   0.99431   1.000
    O330    O    0.29338   0.00567   0.07981   1.000
    O331    O    0.42195   0.97678   0.09959   1.000
    O332    O    0.45662   0.92016   0.99431   1.000
    O333    O    0.79337   0.50567   0.07981   1.000
    O334    O    0.92194   0.47679   0.09989   1.000
    O335    O    0.95663   0.42016   0.99431   1.000
    O336    O    0.04338   0.57982   0.00563   1.000
    O337    O    0.54338   0.57982   0.00564   1.000
    O338    O    0.54338   0.07982   0.00564   1.000
    O339    O    0.04338   0.07982   0.00565   1.000
    O340    O    0.15558   0.74850   0.05567   1.000
    O341    O    0.15558   0.24851   0.05567   1.000
    O342    O    0.65558   0.24851   0.05568   1.000
    O343    O    0.65557   0.74850   0.05568   1.000
    O344    O    0.72677   0.27568   0.07404   1.000
    O345    O    0.68636   0.22931   0.09094   1.000
    O346    O    0.70471   0.20127   0.02667   1.000
    O347    O    0.72677   0.77567   0.07404   1.000
    O348    O    0.68635   0.72931   0.09094   1.000
    O349    O    0.70470   0.70127   0.02668   1.000
    O350    O    0.22677   0.77567   0.07404   1.000
    O351    O    0.18636   0.72931   0.09094   1.000
    O352    O    0.20471   0.70127   0.02667   1.000
    O353    O    0.22677   0.27568   0.07400   1.000
    O354    O    0.18636   0.22931   0.09094   1.000
    O355    O    0.20471   0.20128   0.02665   1.000
    O356    O    0.29703   0.30307   0.09446   1.000
    O357    O    0.25084   0.34059   0.11058   1.000
    O358    O    0.79702   0.80306   0.09450   1.000
    O359    O    0.75083   0.84059   0.11062   1.000
    O360    O    0.79702   0.30307   0.09450   1.000
    O361    O    0.75084   0.34060   0.11062   1.000
    O362    O    0.29702   0.80306   0.09450   1.000
    O363    O    0.25084   0.84059   0.11062   1.000
    O364    O    0.49915   0.38936   0.15928   1.000
    O365    O    0.99917   0.38936   0.15933   1.000
    O366    O    0.49915   0.88935   0.15938   1.000
    O367    O    0.99916   0.88936   0.15937   1.000
    O368    O    0.00057   0.49797   0.15319   1.000
    O369    O    0.50057   0.99796   0.15289   1.000
    O370    O    0.50056   0.49796   0.15318   1.000
    O371    O    0.00057   0.99796   0.15319   1.000
    O372    O    0.47792   0.95263   0.17528   1.000
    O373    O    0.45470   0.02670   0.20097   1.000
    O374    O    0.47793   0.45264   0.17558   1.000
    O375    O    0.45470   0.52669   0.20127   1.000
    O376    O    0.97792   0.45264   0.17558   1.000
    O377    O    0.95468   0.52670   0.20127   1.000
    O378    O    0.97792   0.95264   0.17558   1.000
    O379    O    0.95468   0.02669   0.20127   1.000
    O380    O    0.95297   0.90547   0.19690   1.000
    O381    O    0.02323   0.92593   0.22428   1.000
    O382    O    0.95297   0.40547   0.19688   1.000
    O383    O    0.02324   0.42594   0.22428   1.000
    O384    O    0.45297   0.90547   0.19691   1.000
    O385    O    0.52322   0.92593   0.22429   1.000
    O386    O    0.45297   0.40548   0.19691   1.000
    O387    O    0.52323   0.42593   0.22429   1.000
    O388    O    0.43635   0.59095   0.22931   1.000
    O389    O    0.43636   0.09096   0.22931   1.000
    O390    O    0.93633   0.09096   0.22931   1.000
    O391    O    0.93632   0.59095   0.22931   1.000
    O392    O    0.40558   0.55568   0.24851   1.000
    O393    O    0.47678   0.57405   0.27567   1.000
    O394    O    0.40558   0.05569   0.24851   1.000
    O395    O    0.47678   0.07405   0.27567   1.000
    O396    O    0.90556   0.05568   0.24851   1.000
    O397    O    0.97677   0.07405   0.27567   1.000
    O398    O    0.90555   0.55568   0.24851   1.000
    O399    O    0.97676   0.57404   0.27567   1.000
    O400    O    0.59443   0.44429   0.25101   1.000
    O401    O    0.59442   0.94429   0.25101   1.000
    O402    O    0.09444   0.94430   0.25145   1.000
    O403    O    0.09445   0.44431   0.25145   1.000
    O404    O    0.06367   0.90903   0.27064   1.000
    O405    O    0.04532   0.97329   0.29869   1.000
    O406    O    0.06368   0.40903   0.27064   1.000
    O407    O    0.04532   0.47329   0.29869   1.000
    O408    O    0.56364   0.90902   0.27065   1.000
    O409    O    0.54530   0.97329   0.29869   1.000
    O410    O    0.56365   0.40903   0.27065   1.000
    O411    O    0.54530   0.47328   0.29869   1.000
    O412    O    0.54703   0.09451   0.30305   1.000
    O413    O    0.54703   0.59451   0.30305   1.000
    O414    O    0.04703   0.09451   0.30306   1.000
    O415    O    0.04703   0.59451   0.30306   1.000
    O416    O    0.52207   0.54734   0.32438   1.000
    O417    O    0.50085   0.61062   0.34058   1.000
    O418    O    0.52208   0.04735   0.32438   1.000
    O419    O    0.50085   0.11063   0.34058   1.000
    O420    O    0.02208   0.54734   0.32438   1.000
    O421    O    0.00083   0.61062   0.34059   1.000
    O422    O    0.02208   0.04735   0.32438   1.000
    O423    O    0.00083   0.11062   0.34059   1.000
    O424    O    0.49943   0.50202   0.34677   1.000
    O425    O    0.57804   0.52319   0.40007   1.000
    O426    O    0.49943   0.00203   0.34678   1.000
    O427    O    0.57805   0.02320   0.40007   1.000
    O428    O    0.99943   0.00202   0.34677   1.000
    O429    O    0.07806   0.02320   0.40007   1.000
    O430    O    0.99944   0.50202   0.34677   1.000
    O431    O    0.07806   0.52319   0.40007   1.000
    O432    O    0.24917   0.15939   0.38934   1.000
    O433    O    0.24916   0.65939   0.38934   1.000
    O434    O    0.74916   0.65939   0.38934   1.000
    O435    O    0.74916   0.15939   0.38934   1.000
    O436    O    0.20664   0.99432   0.42015   1.000
    O437    O    0.70662   0.49432   0.42015   1.000
    O438    O    0.70662   0.99432   0.42015   1.000
    O439    O    0.20663   0.49432   0.42015   1.000
    O440    O    0.81365   0.27068   0.40898   1.000
    O441    O    0.31365   0.27068   0.40901   1.000
    O442    O    0.31365   0.77067   0.40901   1.000
    O443    O    0.81364   0.77067   0.40902   1.000
    O444    O    0.70298   0.19692   0.40546   1.000
    O445    O    0.20298   0.69691   0.40546   1.000
    O446    O    0.70297   0.69691   0.40546   1.000
    O447    O    0.20298   0.19692   0.40546   1.000
    O448    O    0.77322   0.72430   0.42592   1.000
    O449    O    0.72793   0.67558   0.45262   1.000
    O450    O    0.77323   0.22431   0.42592   1.000
    O451    O    0.72794   0.17559   0.45259   1.000
    O452    O    0.27323   0.72430   0.42592   1.000
    O453    O    0.22794   0.67558   0.45262   1.000
    O454    O    0.27324   0.22431   0.42592   1.000
    O455    O    0.22794   0.17559   0.45262   1.000
    O456    O    0.34443   0.75147   0.44428   1.000
    O457    O    0.29529   0.79870   0.47327   1.000
    O458    O    0.34443   0.25148   0.44428   1.000
    O459    O    0.29530   0.29871   0.47327   1.000
    O460    O    0.84442   0.25148   0.44428   1.000
    O461    O    0.79529   0.29871   0.47327   1.000
    O462    O    0.84442   0.75147   0.44428   1.000
    O463    O    0.79529   0.79871   0.47327   1.000
    O464    O    0.45663   0.42016   0.49431   1.000
    O465    O    0.95662   0.92016   0.49431   1.000
    O466    O    0.95662   0.42016   0.49431   1.000
    O467    O    0.45662   0.92016   0.49431   1.000
    O468    O    0.67196   0.09990   0.47674   1.000
    O469    O    0.54338   0.07982   0.50565   1.000
    O470    O    0.17197   0.09990   0.47677   1.000
    O471    O    0.04338   0.07982   0.50565   1.000
    O472    O    0.17196   0.59989   0.47677   1.000
    O473    O    0.04338   0.57982   0.50565   1.000
    O474    O    0.67196   0.59989   0.47677   1.000
    O475    O    0.54338   0.57982   0.50565   1.000
    O476    O    0.75057   0.15319   0.49790   1.000
    O477    O    0.70471   0.20127   0.52665   1.000
    O478    O    0.25057   0.65319   0.49793   1.000
    O479    O    0.20471   0.70127   0.52667   1.000
    O480    O    0.25058   0.15320   0.49793   1.000
    O481    O    0.20471   0.20127   0.52667   1.000
    O482    O    0.75057   0.65319   0.49794   1.000
    O483    O    0.70470   0.70127   0.52668   1.000
    O484    O    0.74942   0.84679   0.50201   1.000
    O485    O    0.74943   0.34679   0.50201   1.000
    O486    O    0.24943   0.84678   0.50201   1.000
    O487    O    0.24943   0.34679   0.50201   1.000
    O488    O    0.82804   0.40009   0.52318   1.000
    O489    O    0.77206   0.32440   0.54733   1.000
    O490    O    0.82804   0.90009   0.52318   1.000
    O491    O    0.77206   0.82439   0.54733   1.000
    O492    O    0.32804   0.90008   0.52318   1.000
    O493    O    0.27206   0.82439   0.54733   1.000
    O494    O    0.32805   0.40009   0.52318   1.000
    O495    O    0.27207   0.32440   0.54733   1.000
    O496    O    0.29338   0.50566   0.57979   1.000
    O497    O    0.42196   0.47679   0.59988   1.000
    O498    O    0.29338   0.00566   0.57979   1.000
    O499    O    0.42195   0.97678   0.59988   1.000
    O500    O    0.79337   0.50566   0.57979   1.000
    O501    O    0.92194   0.47679   0.59988   1.000
    O502    O    0.79337   0.00566   0.57979   1.000
    O503    O    0.92194   0.97678   0.59988   1.000
    O504    O    0.15558   0.74850   0.55566   1.000
    O505    O    0.15558   0.24850   0.55566   1.000
    O506    O    0.65557   0.74850   0.55567   1.000
    O507    O    0.65558   0.24851   0.55567   1.000
    O508    O    0.22677   0.77567   0.57403   1.000
    O509    O    0.18636   0.72930   0.59093   1.000
    O510    O    0.22678   0.27568   0.57403   1.000
    O511    O    0.18636   0.22931   0.59093   1.000
    O512    O    0.72676   0.77567   0.57403   1.000
    O513    O    0.68635   0.72930   0.59094   1.000
    O514    O    0.72677   0.27568   0.57403   1.000
    O515    O    0.68636   0.22931   0.59094   1.000
    O516    O    0.79702   0.80306   0.59449   1.000
    O517    O    0.75083   0.84058   0.61061   1.000
    O518    O    0.79702   0.30307   0.59449   1.000
    O519    O    0.75084   0.34059   0.61061   1.000
    O520    O    0.29702   0.80306   0.59449   1.000
    O521    O    0.25084   0.84059   0.61061   1.000
    O522    O    0.29703   0.30307   0.59449   1.000
    O523    O    0.25084   0.34059   0.61061   1.000
    O524    O    0.49915   0.38936   0.65937   1.000
    O525    O    0.49915   0.88935   0.65937   1.000
    O526    O    0.99917   0.88936   0.65936   1.000
    O527    O    0.99917   0.38936   0.65936   1.000
    O528    O    0.00057   0.99796   0.65317   1.000
    O529    O    0.00057   0.49796   0.65318   1.000
    O530    O    0.50057   0.99795   0.65318   1.000
    O531    O    0.50057   0.49795   0.65318   1.000
    O532    O    0.97792   0.95263   0.67556   1.000
    O533    O    0.95468   0.02669   0.70126   1.000
    O534    O    0.97792   0.45264   0.67557   1.000
    O535    O    0.95469   0.52669   0.70126   1.000
    O536    O    0.47793   0.95263   0.67557   1.000
    O537    O    0.45471   0.02670   0.70126   1.000
    O538    O    0.47793   0.45264   0.67557   1.000
    O539    O    0.45471   0.52669   0.70126   1.000
    O540    O    0.95297   0.90547   0.69689   1.000
    O541    O    0.02324   0.92593   0.72427   1.000
    O542    O    0.95297   0.40547   0.69687   1.000
    O543    O    0.02324   0.42594   0.72427   1.000
    O544    O    0.45297   0.90547   0.69690   1.000
    O545    O    0.52322   0.92593   0.72428   1.000
    O546    O    0.45297   0.40548   0.69690   1.000
    O547    O    0.52323   0.42593   0.72428   1.000
    O548    O    0.43636   0.59095   0.72930   1.000
    O549    O    0.43636   0.09096   0.72930   1.000
    O550    O    0.93633   0.59095   0.72930   1.000
    O551    O    0.93633   0.09095   0.72930   1.000
    O552    O    0.90555   0.55567   0.74847   1.000
    O553    O    0.97676   0.57404   0.77566   1.000
    O554    O    0.90556   0.05568   0.74847   1.000
    O555    O    0.97677   0.07405   0.77566   1.000
    O556    O    0.40558   0.55568   0.74850   1.000
    O557    O    0.47678   0.57405   0.77566   1.000
    O558    O    0.40558   0.05569   0.74850   1.000
    O559    O    0.47678   0.07405   0.77566   1.000
    O560    O    0.59442   0.44429   0.75140   1.000
    O561    O    0.59442   0.94429   0.75145   1.000
    O562    O    0.09445   0.44431   0.75144   1.000
    O563    O    0.09445   0.94430   0.75144   1.000
    O564    O    0.06368   0.90902   0.77060   1.000
    O565    O    0.04532   0.97328   0.79867   1.000
    O566    O    0.06368   0.40903   0.77063   1.000
    O567    O    0.04532   0.47328   0.79868   1.000
    O568    O    0.56365   0.40903   0.77064   1.000
    O569    O    0.54530   0.47328   0.79868   1.000
    O570    O    0.56364   0.90902   0.77064   1.000
    O571    O    0.54530   0.97329   0.79868   1.000
    O572    O    0.54704   0.09451   0.80269   1.000
    O573    O    0.54703   0.59450   0.80304   1.000
    O574    O    0.04704   0.09451   0.80305   1.000
    O575    O    0.04703   0.59451   0.80305   1.000
    O576    O    0.52208   0.04735   0.82437   1.000
    O577    O    0.50086   0.11063   0.84057   1.000
    O578    O    0.02208   0.04734   0.82437   1.000
    O579    O    0.00084   0.11062   0.84058   1.000
    O580    O    0.52207   0.54734   0.82437   1.000
    O581    O    0.50085   0.61062   0.84057   1.000
    O582    O    0.02208   0.54734   0.82437   1.000
    O583    O    0.00083   0.61062   0.84058   1.000
    O584    O    0.99943   0.00201   0.84676   1.000
    O585    O    0.07806   0.02319   0.90006   1.000
    O586    O    0.99943   0.50201   0.84676   1.000
    O587    O    0.07806   0.52319   0.90006   1.000
    O588    O    0.49944   0.50202   0.84677   1.000
    O589    O    0.57805   0.52319   0.90006   1.000
    O590    O    0.49944   0.00203   0.84677   1.000
    O591    O    0.57805   0.02320   0.90006   1.000
    O592    O    0.24916   0.65938   0.88933   1.000
    O593    O    0.24917   0.15939   0.88933   1.000
    O594    O    0.74916   0.15939   0.88934   1.000
    O595    O    0.74916   0.65938   0.88934   1.000
    O596    O    0.70662   0.49431   0.92014   1.000
    O597    O    0.20664   0.99431   0.92014   1.000
    O598    O    0.70662   0.99431   0.92014   1.000
    O599    O    0.20664   0.49431   0.92014   1.000
    O600    O    0.31365   0.27067   0.90897   1.000
    O601    O    0.31365   0.77067   0.90897   1.000
    O602    O    0.81365   0.27067   0.90901   1.000
    O603    O    0.81364   0.77067   0.90901   1.000
    O604    O    0.20298   0.69691   0.90543   1.000
    O605    O    0.20298   0.19692   0.90545   1.000
    O606    O    0.70297   0.69691   0.90546   1.000
    O607    O    0.70298   0.19692   0.90546   1.000
    O608    O    0.27323   0.72430   0.92591   1.000
    O609    O    0.22794   0.67558   0.95261   1.000
    O610    O    0.27323   0.22430   0.92591   1.000
    O611    O    0.22794   0.17559   0.95258   1.000
    O612    O    0.77323   0.72430   0.92591   1.000
    O613    O    0.72793   0.67558   0.95262   1.000
    O614    O    0.77323   0.22431   0.92591   1.000
    O615    O    0.72794   0.17559   0.95261   1.000
    O616    O    0.34443   0.25148   0.94417   1.000
    O617    O    0.34442   0.75147   0.94417   1.000
    O618    O    0.84443   0.25148   0.94427   1.000
    O619    O    0.84442   0.75147   0.94427   1.000
    O620    O    0.67196   0.59988   0.97676   1.000
    O621    O    0.67196   0.09989   0.97676   1.000
    O622    O    0.17197   0.59988   0.97676   1.000
    O623    O    0.17197   0.09989   0.97673   1.000
loop_
    _geom_bond_atom_site_label_1
    _geom_bond_atom_site_label_2
    _geom_bond_distance
    _geom_bond_site_symmetry_2
    _ccdc_geom_bond_type
    C136   O304      0.51748  1_554   S
    C297   O304      0.51748      .   S
    C138   O305      0.51732  1_554   S
    C299   O305      0.51732      .   S
    C140   O306      0.51732  1_554   S
    C301   O306      0.51732      .   S
    C142   O307      0.51729  1_554   S
    C303   O307      0.51729      .   S
    C280   O308      1.20120      .   S
    C0     O308      1.20120      .   S
    C280   O309      0.74130      .   S
    C200   O309      0.74130      .   S
    C280   O310      0.74199  1_554   S
    C193   O310      0.74199      .   S
    C280   O311      0.51733      .   S
    C57    O311      0.51733  1_556   S
    C282   O312      1.20112      .   S
    C2     O312      1.20112      .   S
    C282   O313      0.74192      .   S
    C202   O313      0.74192      .   S
    C282   O314      0.74199  1_554   S
    C195   O314      0.74199      .   S
    C282   O315      0.51733      .   S
    C59    O315      0.51733  1_556   S
    C284   O316      1.20114      .   S
    C4     O316      1.20114      .   S
    C284   O317      0.74188      .   S
    C204   O317      0.74188      .   S
    C284   O318      0.74200  1_554   S
    C197   O318      0.74200      .   S
    C284   O319      0.51741      .   S
    C61    O319      0.51741  1_556   S
    C286   O320      1.20111      .   S
    C6     O320      1.20111      .   S
    C286   O321      0.74191      .   S
    C206   O321      0.74191      .   S
    C286   O322      0.74200  1_554   S
    C199   O322      0.74200      .   S
    C286   O323      0.51729      .   S
    C63    O323      0.51729  1_556   S
    C0     O324      1.42783      .   S
    C242   O324      1.42783      .   S
    C0     O325      1.20168      .   S
    C272   O325      1.20168      .   S
    C0     O326      1.42750  1_554   S
    C253   O326      1.42750      .   S
    C6     O327      1.42757  1_565   S
    C244   O327      1.42757      .   S
    C6     O328      1.20113      .   S
    C278   O328      1.20113      .   S
    C6     O329      1.42789  1_554   S
    C251   O329      1.42789  1_455   S
    C2     O330      1.42755  1_565   S
    C240   O330      1.42755      .   S
    C2     O331      1.19697      .   S
    C274   O331      1.19697      .   S
    C2     O332      1.42774  1_554   S
    C255   O332      1.42774      .   S
    C4     O333      1.42759      .   S
    C246   O333      1.42759      .   S
    C4     O334      1.20115      .   S
    C276   O334      1.20115      .   S
    C4     O335      1.42791  1_554   S
    C249   O335      1.42791  1_455   S
    C270   O336      1.42781  1_655   S
    C11    O336      1.42781  1_556   S
    C266   O337      1.42771      .   S
    C15    O337      1.42771  1_556   S
    C264   O338      1.42770      .   S
    C13    O338      1.42770  1_556   S
    C268   O339      1.42789  1_655   S
    C9     O339      1.42789  1_556   S
    C154   O340      0.55000      .   S
    C226   O340      0.55000      .   S
    C152   O341      0.55000      .   S
    C224   O341      0.55000      .   S
    C156   O342      0.54998      .   S
    C228   O342      0.54998      .   S
    C158   O343      0.54998      .   S
    C230   O343      0.54998      .   S
    C228   O344      0.76333      .   S
    C204   O344      0.76333      .   S
    C228   O345      0.54925      .   S
    C148   O345      0.54925      .   S
    C228   O346      0.74200      .   S
    C301   O346      0.74200  1_556   S
    C230   O347      0.76332      .   S
    C206   O347      0.76332      .   S
    C230   O348      0.54926      .   S
    C150   O348      0.54926      .   S
    C230   O349      0.74195      .   S
    C303   O349      0.74195  1_556   S
    C226   O350      0.76333      .   S
    C202   O350      0.76333      .   S
    C226   O351      0.54926      .   S
    C146   O351      0.54926      .   S
    C226   O352      0.74200      .   S
    C299   O352      0.74200  1_556   S
    C224   O353      0.76339      .   S
    C200   O353      0.76339      .   S
    C224   O354      0.54926      .   S
    C144   O354      0.54926      .   S
    C224   O355      0.74222      .   S
    C297   O355      0.74222  1_556   S
    C200   O356      0.55017      .   S
    C80    O356      0.55017      .   S
    C200   O357      0.54974      .   S
    C88    O357      0.54974      .   S
    C206   O358      0.54991      .   S
    C86    O358      0.54991      .   S
    C206   O359      0.54942      .   S
    C94    O359      0.54942      .   S
    C204   O360      0.54992      .   S
    C84    O360      0.54992      .   S
    C204   O361      0.54942      .   S
    C92    O361      0.54942      .   S
    C202   O362      0.54991      .   S
    C82    O362      0.54991      .   S
    C202   O363      0.54942      .   S
    C90    O363      0.54942      .   S
    C52    O364      0.55037      .   S
    C184   O364      0.55037      .   S
    C48    O365      0.54990  1_455   S
    C188   O365      0.54990      .   S
    C54    O366      0.54945      .   S
    C186   O366      0.54945      .   S
    C50    O367      0.54946  1_455   S
    C190   O367      0.54946      .   S
    C18    O368      0.51749      .   S
    C276   O368      0.51749  1_655   S
    C20    O369      0.51510  1_545   S
    C274   O369      0.51510      .   S
    C22    O370      0.51728      .   S
    C272   O370      0.51728      .   S
    C16    O371      0.51759  1_545   S
    C278   O371      0.51759  1_655   S
    C274   O372      0.74490      .   S
    C186   O372      0.74490      .   S
    C274   O373      0.74472  1_565   S
    C176   O373      0.74472      .   S
    C272   O374      0.74195      .   S
    C184   O374      0.74195      .   S
    C272   O375      0.74190      .   S
    C178   O375      0.74190      .   S
    C276   O376      0.74192      .   S
    C188   O376      0.74192      .   S
    C276   O377      0.74187      .   S
    C182   O377      0.74187      .   S
    C278   O378      0.74190      .   S
    C190   O378      0.74190      .   S
    C278   O379      0.74189  1_565   S
    C180   O379      0.74189      .   S
    C190   O380      0.54993      .   S
    C46    O380      0.54993      .   S
    C190   O381      0.76346  1_655   S
    C210   O381      0.76346      .   S
    C188   O382      0.54974      .   S
    C44    O382      0.54974      .   S
    C188   O383      0.76345  1_655   S
    C208   O383      0.76345      .   S
    C186   O384      0.54991      .   S
    C42    O384      0.54991      .   S
    C186   O385      0.76334      .   S
    C214   O385      0.76334      .   S
    C184   O386      0.54992      .   S
    C40    O386      0.54992      .   S
    C184   O387      0.76334      .   S
    C212   O387      0.76334      .   S
    C26    O388      0.54924      .   S
    C178   O388      0.54924      .   S
    C24    O389      0.54924      .   S
    C176   O389      0.54924      .   S
    C28    O390      0.54921      .   S
    C180   O390      0.54921      .   S
    C30    O391      0.54921      .   S
    C182   O391      0.54921      .   S
    C178   O392      0.54999      .   S
    C34    O392      0.54999      .   S
    C178   O393      0.76332      .   S
    C222   O393      0.76332      .   S
    C176   O394      0.54999      .   S
    C32    O394      0.54999      .   S
    C176   O395      0.76333      .   S
    C220   O395      0.76333      .   S
    C180   O396      0.55001      .   S
    C36    O396      0.55001      .   S
    C180   O397      0.76345      .   S
    C216   O397      0.76345  1_455   S
    C182   O398      0.55000      .   S
    C38    O398      0.55000      .   S
    C182   O399      0.76346      .   S
    C218   O399      0.76346  1_455   S
    C116   O400      0.55309      .   S
    C212   O400      0.55309      .   S
    C118   O401      0.55309      .   S
    C214   O401      0.55309      .   S
    C114   O402      0.54997      .   S
    C210   O402      0.54997      .   S
    C112   O403      0.54998      .   S
    C208   O403      0.54998      .   S
    C210   O404      0.54921      .   S
    C106   O404      0.54921      .   S
    C210   O405      0.74194      .   S
    C288   O405      0.74194  1_545   S
    C208   O406      0.54922      .   S
    C104   O406      0.54922      .   S
    C208   O407      0.74189      .   S
    C290   O407      0.74189      .   S
    C214   O408      0.54919      .   S
    C110   O408      0.54919      .   S
    C214   O409      0.74190      .   S
    C292   O409      0.74190  1_545   S
    C212   O410      0.54918      .   S
    C108   O410      0.54918      .   S
    C212   O411      0.74183      .   S
    C294   O411      0.74183      .   S
    C124   O412      0.54991      .   S
    C220   O412      0.54991      .   S
    C126   O413      0.54991      .   S
    C222   O413      0.54991      .   S
    C120   O414      0.54990      .   S
    C216   O414      0.54990      .   S
    C122   O415      0.54990      .   S
    C218   O415      0.54990      .   S
    C222   O416      0.74189      .   S
    C294   O416      0.74189      .   S
    C222   O417      0.54940      .   S
    C130   O417      0.54940      .   S
    C220   O418      0.74191      .   S
    C292   O418      0.74191      .   S
    C220   O419      0.54940      .   S
    C128   O419      0.54940      .   S
    C218   O420      0.74192      .   S
    C290   O420      0.74192      .   S
    C218   O421      0.54951      .   S
    C134   O421      0.54951  1_655   S
    C216   O422      0.74194      .   S
    C288   O422      0.74194      .   S
    C216   O423      0.54951      .   S
    C132   O423      0.54951  1_655   S
    C294   O424      0.51733      .   S
    C96    O424      0.51733      .   S
    C294   O425      1.20122      .   S
    C14    O425      1.20122      .   S
    C292   O426      0.51740      .   S
    C98    O426      0.51740  1_565   S
    C292   O427      1.20114      .   S
    C12    O427      1.20114      .   S
    C288   O428      0.51756  1_455   S
    C102   O428      0.51756  1_565   S
    C288   O429      1.20114      .   S
    C8     O429      1.20114      .   S
    C290   O430      0.51749  1_455   S
    C100   O430      0.51749      .   S
    C290   O431      1.20112      .   S
    C10    O431      1.20112      .   S
    C168   O432      0.54941      .   S
    C232   O432      0.54941      .   S
    C170   O433      0.54942      .   S
    C234   O433      0.54942      .   S
    C174   O434      0.54943      .   S
    C238   O434      0.54943      .   S
    C172   O435      0.54938      .   S
    C236   O435      0.54938      .   S
    C258   O436      1.42758      .   S
    C8     O436      1.42758  1_545   S
    C260   O437      1.42762      .   S
    C14    O437      1.42762      .   S
    C262   O438      1.42759      .   S
    C12    O438      1.42759  1_545   S
    C256   O439      1.42760      .   S
    C10    O439      1.42760      .   S
    C68    O440      0.54982      .   S
    C196   O440      0.54982      .   S
    C64    O441      0.54925      .   S
    C192   O441      0.54925      .   S
    C66    O442      0.54926      .   S
    C194   O442      0.54926      .   S
    C70    O443      0.54917      .   S
    C198   O443      0.54917      .   S
    C164   O444      0.54990      .   S
    C236   O444      0.54990      .   S
    C162   O445      0.54991      .   S
    C234   O445      0.54991      .   S
    C166   O446      0.54991      .   S
    C238   O446      0.54991      .   S
    C160   O447      0.54991      .   S
    C232   O447      0.54991      .   S
    C238   O448      0.76333      .   S
    C198   O448      0.76333      .   S
    C238   O449      0.74196      .   S
    C302   O449      0.74196      .   S
    C236   O450      0.76332      .   S
    C196   O450      0.76332      .   S
    C236   O451      0.74143      .   S
    C300   O451      0.74143      .   S
    C234   O452      0.76332      .   S
    C194   O452      0.76332      .   S
    C234   O453      0.74194      .   S
    C298   O453      0.74194      .   S
    C232   O454      0.76333      .   S
    C192   O454      0.76333      .   S
    C232   O455      0.74191      .   S
    C296   O455      0.74191      .   S
    C194   O456      0.54997      .   S
    C74    O456      0.54997      .   S
    C194   O457      0.74186      .   S
    C283   O457      0.74186      .   S
    C192   O458      0.54997      .   S
    C72    O458      0.54997      .   S
    C192   O459      0.74186      .   S
    C281   O459      0.74186      .   S
    C196   O460      0.55000      .   S
    C76    O460      0.55000      .   S
    C196   O461      0.74187      .   S
    C285   O461      0.74187      .   S
    C198   O462      0.55000      .   S
    C78    O462      0.55000      .   S
    C198   O463      0.74187      .   S
    C287   O463      0.74187      .   S
    C252   O464      1.42763      .   S
    C1     O464      1.42763      .   S
    C250   O465      1.42781  1_455   S
    C7     O465      1.42781      .   S
    C248   O466      1.42782  1_455   S
    C5     O466      1.42782      .   S
    C254   O467      1.42764      .   S
    C3     O467      1.42764      .   S
    C12    O468      1.20122      .   S
    C300   O468      1.20122      .   S
    C12    O469      1.42760      .   S
    C265   O469      1.42760      .   S
    C8     O470      1.20111      .   S
    C296   O470      1.20111      .   S
    C8     O471      1.42781      .   S
    C269   O471      1.42781  1_655   S
    C10    O472      1.20108      .   S
    C298   O472      1.20108      .   S
    C10    O473      1.42781      .   S
    C271   O473      1.42781  1_655   S
    C14    O474      1.20116      .   S
    C302   O474      1.20116      .   S
    C14    O475      1.42762      .   S
    C267   O475      1.42762      .   S
    C300   O476      0.51750      .   S
    C141   O476      0.51750      .   S
    C300   O477      0.74218      .   S
    C229   O477      0.74218      .   S
    C298   O478      0.51731      .   S
    C139   O478      0.51731      .   S
    C298   O479      0.74187      .   S
    C227   O479      0.74187      .   S
    C296   O480      0.51731      .   S
    C137   O480      0.51731      .   S
    C296   O481      0.74187      .   S
    C225   O481      0.74187      .   S
    C302   O482      0.51728      .   S
    C143   O482      0.51728      .   S
    C302   O483      0.74186      .   S
    C231   O483      0.74186      .   S
    C62    O484      0.51731      .   S
    C287   O484      0.51731      .   S
    C60    O485      0.51731      .   S
    C285   O485      0.51731      .   S
    C58    O486      0.51731      .   S
    C283   O486      0.51731      .   S
    C56    O487      0.51731      .   S
    C281   O487      0.51731      .   S
    C285   O488      1.20110      .   S
    C5     O488      1.20110      .   S
    C285   O489      0.74191      .   S
    C205   O489      0.74191      .   S
    C287   O490      1.20107      .   S
    C7     O490      1.20107      .   S
    C287   O491      0.74194      .   S
    C207   O491      0.74194      .   S
    C283   O492      1.20116      .   S
    C3     O492      1.20116      .   S
    C283   O493      0.74188      .   S
    C203   O493      0.74188      .   S
    C281   O494      1.20112      .   S
    C1     O494      1.20112      .   S
    C281   O495      0.74191      .   S
    C201   O495      0.74191      .   S
    C1     O496      1.42750      .   S
    C243   O496      1.42750      .   S
    C1     O497      1.20114      .   S
    C273   O497      1.20114      .   S
    C3     O498      1.42747  1_565   S
    C241   O498      1.42747      .   S
    C3     O499      1.20115      .   S
    C275   O499      1.20115      .   S
    C5     O500      1.42748      .   S
    C247   O500      1.42748      .   S
    C5     O501      1.20114      .   S
    C277   O501      1.20114      .   S
    C7     O502      1.42747  1_565   S
    C245   O502      1.42747      .   S
    C7     O503      1.20105      .   S
    C279   O503      1.20105      .   S
    C155   O504      0.54999      .   S
    C227   O504      0.54999      .   S
    C153   O505      0.55000      .   S
    C225   O505      0.55000      .   S
    C159   O506      0.55000      .   S
    C231   O506      0.55000      .   S
    C157   O507      0.55000      .   S
    C229   O507      0.55000      .   S
    C227   O508      0.76333      .   S
    C203   O508      0.76333      .   S
    C227   O509      0.54925      .   S
    C147   O509      0.54925      .   S
    C225   O510      0.76333      .   S
    C201   O510      0.76333      .   S
    C225   O511      0.54925      .   S
    C145   O511      0.54925      .   S
    C231   O512      0.76333      .   S
    C207   O512      0.76333      .   S
    C231   O513      0.54917      .   S
    C151   O513      0.54917      .   S
    C229   O514      0.76334      .   S
    C205   O514      0.76334      .   S
    C229   O515      0.54917      .   S
    C149   O515      0.54917      .   S
    C207   O516      0.54991      .   S
    C87    O516      0.54991      .   S
    C207   O517      0.54942      .   S
    C95    O517      0.54942      .   S
    C205   O518      0.54991      .   S
    C85    O518      0.54991      .   S
    C205   O519      0.54942      .   S
    C93    O519      0.54942      .   S
    C203   O520      0.54991      .   S
    C83    O520      0.54991      .   S
    C203   O521      0.54943      .   S
    C91    O521      0.54943      .   S
    C201   O522      0.54991      .   S
    C81    O522      0.54991      .   S
    C201   O523      0.54942      .   S
    C89    O523      0.54942      .   S
    C53    O524      0.54944      .   S
    C185   O524      0.54944      .   S
    C55    O525      0.54944      .   S
    C187   O525      0.54944      .   S
    C51    O526      0.54946  1_455   S
    C191   O526      0.54946      .   S
    C49    O527      0.54945  1_455   S
    C189   O527      0.54945      .   S
    C17    O528      0.51757  1_545   S
    C279   O528      0.51757  1_655   S
    C19    O529      0.51751      .   S
    C277   O529      0.51751  1_655   S
    C21    O530      0.51738  1_545   S
    C275   O530      0.51738      .   S
    C23    O531      0.51730      .   S
    C273   O531      0.51730      .   S
    C279   O532      0.74193      .   S
    C191   O532      0.74193      .   S
    C279   O533      0.74193  1_565   S
    C181   O533      0.74193      .   S
    C277   O534      0.74190      .   S
    C189   O534      0.74190      .   S
    C277   O535      0.74186      .   S
    C183   O535      0.74186      .   S
    C275   O536      0.74194      .   S
    C187   O536      0.74194      .   S
    C275   O537      0.74192  1_565   S
    C177   O537      0.74192      .   S
    C273   O538      0.74191      .   S
    C185   O538      0.74191      .   S
    C273   O539      0.74187      .   S
    C179   O539      0.74187      .   S
    C191   O540      0.54994      .   S
    C47    O540      0.54994      .   S
    C191   O541      0.76346  1_655   S
    C211   O541      0.76346      .   S
    C189   O542      0.54979      .   S
    C45    O542      0.54979      .   S
    C189   O543      0.76345  1_655   S
    C209   O543      0.76345      .   S
    C187   O544      0.54990      .   S
    C43    O544      0.54990      .   S
    C187   O545      0.76332      .   S
    C215   O545      0.76332      .   S
    C185   O546      0.54991      .   S
    C41    O546      0.54991      .   S
    C185   O547      0.76333      .   S
    C213   O547      0.76333      .   S
    C27    O548      0.54923      .   S
    C179   O548      0.54923      .   S
    C25    O549      0.54923      .   S
    C177   O549      0.54923      .   S
    C31    O550      0.54921      .   S
    C183   O550      0.54921      .   S
    C29    O551      0.54921      .   S
    C181   O551      0.54921      .   S
    C183   O552      0.54980      .   S
    C39    O552      0.54980      .   S
    C183   O553      0.76345      .   S
    C219   O553      0.76345  1_455   S
    C181   O554      0.54981      .   S
    C37    O554      0.54981      .   S
    C181   O555      0.76344      .   S
    C217   O555      0.76344  1_455   S
    C179   O556      0.54999      .   S
    C35    O556      0.54999      .   S
    C179   O557      0.76334      .   S
    C223   O557      0.76334      .   S
    C177   O558      0.54999      .   S
    C33    O558      0.54999      .   S
    C177   O559      0.76328      .   S
    C221   O559      0.76328      .   S
    C117   O560      0.55029      .   S
    C213   O560      0.55029      .   S
    C119   O561      0.55000      .   S
    C215   O561      0.55000      .   S
    C113   O562      0.54998      .   S
    C209   O562      0.54998      .   S
    C115   O563      0.54997      .   S
    C211   O563      0.54997      .   S
    C211   O564      0.54885      .   S
    C107   O564      0.54885      .   S
    C211   O565      0.74191      .   S
    C289   O565      0.74191  1_545   S
    C209   O566      0.54921      .   S
    C105   O566      0.54921      .   S
    C209   O567      0.74191      .   S
    C291   O567      0.74191      .   S
    C213   O568      0.54919      .   S
    C109   O568      0.54919      .   S
    C213   O569      0.74186      .   S
    C295   O569      0.74186      .   S
    C215   O570      0.54919      .   S
    C111   O570      0.54919      .   S
    C215   O571      0.74189      .   S
    C293   O571      0.74189  1_545   S
    C125   O572      0.55239      .   S
    C221   O572      0.55239      .   S
    C127   O573      0.54991      .   S
    C223   O573      0.54991      .   S
    C121   O574      0.54989      .   S
    C217   O574      0.54989      .   S
    C123   O575      0.54990      .   S
    C219   O575      0.54990      .   S
    C221   O576      0.74194      .   S
    C293   O576      0.74194      .   S
    C221   O577      0.54945      .   S
    C129   O577      0.54945      .   S
    C217   O578      0.74191      .   S
    C289   O578      0.74191      .   S
    C217   O579      0.54951      .   S
    C133   O579      0.54951  1_655   S
    C223   O580      0.74191      .   S
    C295   O580      0.74191      .   S
    C223   O581      0.54940      .   S
    C131   O581      0.54940      .   S
    C219   O582      0.74195      .   S
    C291   O582      0.74195      .   S
    C219   O583      0.54951      .   S
    C135   O583      0.54951  1_655   S
    C289   O584      0.51758  1_455   S
    C103   O584      0.51758  1_565   S
    C289   O585      1.20122      .   S
    C9     O585      1.20122      .   S
    C291   O586      0.51747  1_455   S
    C101   O586      0.51747      .   S
    C291   O587      1.20114      .   S
    C11    O587      1.20114      .   S
    C295   O588      0.51731      .   S
    C97    O588      0.51731      .   S
    C295   O589      1.20115      .   S
    C15    O589      1.20115      .   S
    C293   O590      0.51742      .   S
    C99    O590      0.51742  1_565   S
    C293   O591      1.20113      .   S
    C13    O591      1.20113      .   S
    C171   O592      0.54941      .   S
    C235   O592      0.54941      .   S
    C169   O593      0.54942      .   S
    C233   O593      0.54942      .   S
    C173   O594      0.54941      .   S
    C237   O594      0.54941      .   S
    C175   O595      0.54942      .   S
    C239   O595      0.54942      .   S
    C261   O596      1.42760      .   S
    C15    O596      1.42760      .   S
    C259   O597      1.42760      .   S
    C9     O597      1.42760  1_545   S
    C263   O598      1.42759      .   S
    C13    O598      1.42759  1_545   S
    C257   O599      1.42761      .   S
    C11    O599      1.42761      .   S
    C65    O600      0.54974      .   S
    C193   O600      0.54974      .   S
    C67    O601      0.54974      .   S
    C195   O601      0.54974      .   S
    C69    O602      0.54918      .   S
    C197   O602      0.54918      .   S
    C71    O603      0.54918      .   S
    C199   O603      0.54918      .   S
    C163   O604      0.55002      .   S
    C235   O604      0.55002      .   S
    C161   O605      0.54992      .   S
    C233   O605      0.54992      .   S
    C167   O606      0.54991      .   S
    C239   O606      0.54991      .   S
    C165   O607      0.54990      .   S
    C237   O607      0.54990      .   S
    C235   O608      0.76332      .   S
    C195   O608      0.76332      .   S
    C235   O609      0.74191      .   S
    C299   O609      0.74191      .   S
    C233   O610      0.76333      .   S
    C193   O610      0.76333      .   S
    C233   O611      0.74148      .   S
    C297   O611      0.74148      .   S
    C239   O612      0.76334      .   S
    C199   O612      0.76334      .   S
    C239   O613      0.74192      .   S
    C303   O613      0.74192      .   S
    C237   O614      0.76333      .   S
    C197   O614      0.76333      .   S
    C237   O615      0.74187      .   S
    C301   O615      0.74187      .   S
    C193   O616      0.54944      .   S
    C73    O616      0.54944      .   S
    C195   O617      0.54944      .   S
    C75    O617      0.54944      .   S
    C197   O618      0.55000      .   S
    C77    O618      0.55000      .   S
    C199   O619      0.55000      .   S
    C79    O619      0.55000      .   S
    C15    O620      1.20111      .   S
    C303   O620      1.20111      .   S
    C13    O621      1.20110      .   S
    C301   O621      1.20110      .   S
    C11    O622      1.20112      .   S
    C299   O622      1.20112      .   S
    C9     O623      1.20123      .   S
    C297   O623      1.20123      .   S
