# CIF file generated by openbabel 2.4.90, see http://openbabel.sf.net
data_I
_chemical_name_common ''
_cell_length_a 18.665
_cell_length_b 19.524
_cell_length_c 19.476
_cell_angle_alpha 122.217
_cell_angle_beta 89.958
_cell_angle_gamma 90.118
_space_group_name_H-M_alt 'P 1'
_space_group_name_Hall 'P 1'
loop_
    _symmetry_equiv_pos_as_xyz
    x,y,z
loop_
    _atom_site_label
    _atom_site_type_symbol
    _atom_site_fract_x
    _atom_site_fract_y
    _atom_site_fract_z
    _atom_site_occupancy
    H0      H    0.12617   0.26429   0.20979   1.000
    H1      H    0.12616   0.26429   0.70970   1.000
    H2      H    0.12616   0.76428   0.20978   1.000
    H3      H    0.12616   0.76428   0.70978   1.000
    H4      H    0.62616   0.26429   0.20979   1.000
    H5      H    0.62615   0.26429   0.70970   1.000
    H6      H    0.62615   0.76428   0.20978   1.000
    H7      H    0.62615   0.76428   0.70978   1.000
    H8      H    0.21954   0.15891   0.39577   1.000
    H9      H    0.21954   0.15891   0.89577   1.000
    H10     H    0.21954   0.65890   0.39577   1.000
    H11     H    0.21953   0.65890   0.89570   1.000
    H12     H    0.71953   0.15891   0.39577   1.000
    H13     H    0.71953   0.15891   0.89577   1.000
    H14     H    0.71952   0.65890   0.39577   1.000
    H15     H    0.71952   0.65890   0.89570   1.000
    H16     H    0.12576   0.17850   0.40630   1.000
    H17     H    0.12576   0.17850   0.90631   1.000
    H18     H    0.12576   0.67849   0.40631   1.000
    H19     H    0.12576   0.67849   0.90631   1.000
    H20     H    0.62575   0.17850   0.40630   1.000
    H21     H    0.62575   0.17850   0.90631   1.000
    H22     H    0.62575   0.67849   0.40631   1.000
    H23     H    0.62574   0.67849   0.90631   1.000
    H24     H    0.30204   0.29622   0.47342   1.000
    H25     H    0.30203   0.29622   0.97342   1.000
    H26     H    0.30203   0.79621   0.47342   1.000
    H27     H    0.30203   0.79621   0.97342   1.000
    H28     H    0.80203   0.29622   0.47342   1.000
    H29     H    0.80202   0.29622   0.97342   1.000
    H30     H    0.80202   0.79621   0.47342   1.000
    H31     H    0.80202   0.79621   0.97342   1.000
    H32     H    0.28751   0.16053   0.27642   1.000
    H33     H    0.28751   0.16052   0.77640   1.000
    H34     H    0.28751   0.66052   0.27641   1.000
    H35     H    0.28750   0.66052   0.77641   1.000
    H36     H    0.78750   0.16052   0.27642   1.000
    H37     H    0.78750   0.16052   0.77640   1.000
    H38     H    0.78750   0.66052   0.27641   1.000
    H39     H    0.78749   0.66052   0.77641   1.000
    H40     H    0.29741   0.04459   0.13355   1.000
    H41     H    0.29741   0.04458   0.63354   1.000
    H42     H    0.29740   0.54458   0.13354   1.000
    H43     H    0.29740   0.54458   0.63355   1.000
    H44     H    0.79740   0.04459   0.13350   1.000
    H45     H    0.79739   0.04459   0.63354   1.000
    H46     H    0.79739   0.54458   0.13354   1.000
    H47     H    0.79739   0.54458   0.63350   1.000
    H48     H    0.38340   0.05203   0.09831   1.000
    H49     H    0.38340   0.05203   0.59830   1.000
    H50     H    0.38339   0.55202   0.09830   1.000
    H51     H    0.38339   0.55202   0.59831   1.000
    H52     H    0.88339   0.05203   0.09831   1.000
    H53     H    0.88338   0.05203   0.59831   1.000
    H54     H    0.88338   0.55202   0.09830   1.000
    H55     H    0.88338   0.55202   0.59831   1.000
    H56     H    0.14401   0.32184   0.00317   1.000
    H57     H    0.14401   0.32184   0.50317   1.000
    H58     H    0.14400   0.82183   0.50316   1.000
    H59     H    0.14400   0.82183   0.00000   1.000
    H60     H    0.64400   0.32184   0.00317   1.000
    H61     H    0.64400   0.32184   0.50317   1.000
    H62     H    0.64399   0.82183   0.50316   1.000
    H63     H    0.64399   0.82183   0.00000   1.000
    H64     H    0.34288   0.42944   0.45661   1.000
    H65     H    0.34287   0.42944   0.95660   1.000
    H66     H    0.34287   0.92943   0.45661   1.000
    H67     H    0.34287   0.92943   0.95661   1.000
    H68     H    0.84286   0.42944   0.45661   1.000
    H69     H    0.84286   0.42944   0.95660   1.000
    H70     H    0.84286   0.92943   0.45661   1.000
    H71     H    0.84286   0.92943   0.95660   1.000
    H72     H    0.36620   0.40921   0.03132   1.000
    H73     H    0.36619   0.40921   0.53132   1.000
    H74     H    0.36619   0.90921   0.03132   1.000
    H75     H    0.36619   0.90920   0.53132   1.000
    H76     H    0.86619   0.40921   0.03132   1.000
    H77     H    0.86618   0.40921   0.53132   1.000
    H78     H    0.86618   0.90921   0.03132   1.000
    H79     H    0.86618   0.90920   0.53132   1.000
    H80     H    0.33204   0.07477   0.00498   1.000
    H81     H    0.33203   0.07476   0.50498   1.000
    H82     H    0.33203   0.57476   0.00498   1.000
    H83     H    0.33203   0.57476   0.50498   1.000
    H84     H    0.58230   0.92523   0.99480   1.000
    H85     H    0.49911   0.44362   0.47639   1.000
    H86     H    0.49910   0.44362   0.97630   1.000
    H87     H    0.49910   0.94361   0.47638   1.000
    H88     H    0.83202   0.07477   0.00498   1.000
    H89     H    0.83202   0.07476   0.50498   1.000
    H90     H    0.83202   0.57476   0.00498   1.000
    H91     H    0.83202   0.57476   0.50498   1.000
    H92     H    0.24897   0.05605   0.02375   1.000
    H93     H    0.24896   0.05605   0.52375   1.000
    H94     H    0.24896   0.55604   0.02375   1.000
    H95     H    0.24896   0.55604   0.52375   1.000
    H96     H    0.74895   0.05605   0.02375   1.000
    H97     H    0.74895   0.05605   0.52375   1.000
    H98     H    0.74895   0.55604   0.02375   1.000
    H99     H    0.74895   0.55604   0.52375   1.000
    H100    H    0.37590   0.23589   0.29030   1.000
    H101    H    0.37589   0.23589   0.79036   1.000
    H102    H    0.37589   0.73588   0.29036   1.000
    H103    H    0.37589   0.73588   0.79036   1.000
    H104    H    0.87589   0.23589   0.29030   1.000
    H105    H    0.87588   0.23589   0.79036   1.000
    H106    H    0.87588   0.73588   0.29036   1.000
    H107    H    0.87588   0.73588   0.79036   1.000
    H108    H    0.47003   0.34092   0.10411   1.000
    H109    H    0.47003   0.34092   0.60410   1.000
    H110    H    0.47003   0.84091   0.10410   1.000
    H111    H    0.47003   0.84091   0.60410   1.000
    H112    H    0.97002   0.34092   0.10411   1.000
    H113    H    0.97002   0.34092   0.60410   1.000
    H114    H    0.97002   0.84091   0.10410   1.000
    H115    H    0.97001   0.84091   0.60410   1.000
    C116    C    0.19048   0.28207   0.48808   1.000
    C117    C    0.19048   0.28207   0.98808   1.000
    C118    C    0.19048   0.78206   0.48808   1.000
    C119    C    0.19048   0.78206   0.98808   1.000
    C120    C    0.69047   0.28207   0.48808   1.000
    H121    H    0.37619   0.32139   0.09368   1.000
    H122    H    0.37618   0.32139   0.59360   1.000
    H123    H    0.37618   0.82138   0.09367   1.000
    H124    H    0.37618   0.82138   0.59367   1.000
    H125    H    0.87618   0.32139   0.09368   1.000
    H126    H    0.87617   0.32139   0.59367   1.000
    H127    H    0.87617   0.82138   0.09367   1.000
    H128    H    0.87617   0.82138   0.59367   1.000
    H129    H    0.05201   0.20394   0.02682   1.000
    H130    H    0.05200   0.20393   0.52682   1.000
    H131    H    0.05200   0.70393   0.02682   1.000
    H132    H    0.05200   0.70393   0.52680   1.000
    H133    H    0.55200   0.20394   0.02682   1.000
    H134    H    0.55199   0.20393   0.52682   1.000
    H135    H    0.55199   0.70393   0.02682   1.000
    H136    H    0.55199   0.70393   0.52680   1.000
    H137    H    0.03801   0.33909   0.22333   1.000
    H138    H    0.03801   0.33909   0.72333   1.000
    H139    H    0.03801   0.83908   0.22332   1.000
    H140    H    0.03801   0.83908   0.72330   1.000
    H141    H    0.53800   0.33909   0.22333   1.000
    H142    H    0.53800   0.33909   0.72333   1.000
    H143    H    0.53800   0.83908   0.22332   1.000
    H144    H    0.53800   0.83908   0.72332   1.000
    H145    H    0.04721   0.45548   0.36653   1.000
    H146    H    0.04721   0.45548   0.86653   1.000
    H147    H    0.04720   0.95547   0.36653   1.000
    H148    H    0.04720   0.95547   0.86653   1.000
    H149    H    0.54720   0.45548   0.36653   1.000
    H150    H    0.54720   0.45548   0.86653   1.000
    H151    H    0.54720   0.95547   0.36653   1.000
    H152    H    0.54719   0.95547   0.86653   1.000
    H153    H    0.13330   0.44853   0.40172   1.000
    H154    H    0.13330   0.44853   0.90172   1.000
    H155    H    0.13330   0.94852   0.40172   1.000
    H156    H    0.13330   0.94853   0.90172   1.000
    H157    H    0.63329   0.44853   0.40172   1.000
    H158    H    0.63329   0.44853   0.90172   1.000
    H159    H    0.63329   0.94852   0.40172   1.000
    H160    H    0.63329   0.94852   0.90172   1.000
    H161    H    0.39394   0.17796   0.49688   1.000
    H162    H    0.39394   0.17796   0.99688   1.000
    H163    H    0.39393   0.67795   0.99688   1.000
    H164    H    0.39393   0.67795   0.49688   1.000
    H165    H    0.89393   0.17796   0.99688   1.000
    H166    H    0.89393   0.17796   0.49688   1.000
    H167    H    0.89392   0.67795   0.99688   1.000
    H168    H    0.89392   0.67795   0.49688   1.000
    H169    H    0.09257   0.07090   0.04353   1.000
    H170    H    0.09257   0.07090   0.54352   1.000
    H171    H    0.09257   0.57090   0.04352   1.000
    H172    H    0.09256   0.57089   0.54352   1.000
    H173    H    0.59256   0.07090   0.04353   1.000
    H174    H    0.59256   0.07090   0.54352   1.000
    H175    H    0.59256   0.57090   0.04350   1.000
    H176    H    0.59255   0.57089   0.54352   1.000
    H177    H    0.11613   0.09119   0.46887   1.000
    H178    H    0.11613   0.09119   0.96888   1.000
    H179    H    0.11613   0.59118   0.46887   1.000
    H180    H    0.11612   0.59118   0.96887   1.000
    H181    H    0.61612   0.09119   0.46887   1.000
    H182    H    0.61612   0.09119   0.96888   1.000
    H183    H    0.61611   0.59118   0.46880   1.000
    H184    H    0.61611   0.59118   0.96887   1.000
    H185    H    0.08232   0.42524   0.49489   1.000
    H186    H    0.08232   0.42524   0.99480   1.000
    H187    H    0.08232   0.92523   0.49488   1.000
    H188    H    0.08231   0.92523   0.99489   1.000
    H189    H    0.58231   0.42524   0.49489   1.000
    H190    H    0.58231   0.42524   0.99480   1.000
    H191    H    0.58231   0.92523   0.49480   1.000
    N192    N    0.50334   0.17381   0.51100   1.000
    N193    N    0.50334   0.67380   0.01100   1.000
    N194    N    0.50333   0.67380   0.51100   1.000
    N195    N    0.47035   0.28968   0.27749   1.000
    N196    N    0.47034   0.28968   0.77749   1.000
    N197    N    0.47034   0.78967   0.27749   1.000
    N198    N    0.47034   0.78967   0.77749   1.000
    N199    N    0.97033   0.28968   0.27749   1.000
    H200    H    0.49910   0.94361   0.97638   1.000
    H201    H    0.99910   0.44362   0.47639   1.000
    H202    H    0.99909   0.44362   0.97630   1.000
    H203    H    0.99909   0.94361   0.47638   1.000
    H204    H    0.99909   0.94361   0.97638   1.000
    C205    C    0.15490   0.24458   0.24454   1.000
    C206    C    0.15490   0.24457   0.74454   1.000
    C207    C    0.15490   0.74457   0.24454   1.000
    C208    C    0.15489   0.74457   0.74454   1.000
    C209    C    0.65489   0.24457   0.24454   1.000
    C210    C    0.65489   0.24457   0.74454   1.000
    C211    C    0.65489   0.74457   0.24454   1.000
    C212    C    0.65488   0.74457   0.74454   1.000
    C213    C    0.17823   0.20291   0.40410   1.000
    C214    C    0.17822   0.20291   0.90410   1.000
    C215    C    0.17822   0.70290   0.40410   1.000
    C216    C    0.17822   0.70290   0.90400   1.000
    C217    C    0.67822   0.20291   0.40410   1.000
    C218    C    0.67821   0.20291   0.90410   1.000
    C219    C    0.67821   0.70290   0.40410   1.000
    C220    C    0.67821   0.70290   0.90400   1.000
    C221    C    0.23763   0.18991   0.27854   1.000
    C222    C    0.23762   0.18991   0.77854   1.000
    C223    C    0.23762   0.68990   0.27854   1.000
    C224    C    0.23762   0.68990   0.77854   1.000
    C225    C    0.73762   0.18991   0.27854   1.000
    C226    C    0.73761   0.18991   0.77854   1.000
    C227    C    0.73761   0.68990   0.27854   1.000
    C228    C    0.73761   0.68990   0.77854   1.000
    C229    C    0.18241   0.21270   0.33336   1.000
    C230    C    0.18241   0.21269   0.83336   1.000
    C231    C    0.18240   0.71269   0.33336   1.000
    C232    C    0.18240   0.71269   0.83336   1.000
    C233    C    0.68240   0.21270   0.33336   1.000
    C234    C    0.68240   0.21269   0.83336   1.000
    C235    C    0.68239   0.71269   0.33336   1.000
    C236    C    0.68239   0.71269   0.83336   1.000
    C237    C    0.32805   0.03152   0.07971   1.000
    C238    C    0.32805   0.03151   0.57970   1.000
    C239    C    0.32805   0.53151   0.07970   1.000
    C240    C    0.32804   0.53151   0.57971   1.000
    C241    C    0.82804   0.03152   0.07971   1.000
    C242    C    0.82804   0.03152   0.57971   1.000
    C243    C    0.82804   0.53151   0.07970   1.000
    C244    C    0.82803   0.53151   0.57971   1.000
    C245    C    0.19594   0.25803   0.05160   1.000
    C246    C    0.19594   0.25802   0.55160   1.000
    C247    C    0.19594   0.75802   0.05160   1.000
    C248    C    0.19593   0.75802   0.55100   1.000
    C249    C    0.69593   0.25803   0.05160   1.000
    C250    C    0.69593   0.25802   0.55160   1.000
    C251    C    0.69593   0.75802   0.05160   1.000
    C252    C    0.69592   0.75802   0.55100   1.000
    C253    C    0.69047   0.28207   0.98808   1.000
    C254    C    0.69047   0.78206   0.48808   1.000
    C255    C    0.69046   0.78206   0.98808   1.000
    C256    C    0.32654   0.44062   0.01615   1.000
    C257    C    0.32654   0.44062   0.51615   1.000
    C258    C    0.32654   0.94062   0.01615   1.000
    C259    C    0.32653   0.94061   0.51615   1.000
    C260    C    0.82653   0.44062   0.01615   1.000
    C261    C    0.82653   0.44062   0.51615   1.000
    C262    C    0.82652   0.94062   0.01615   1.000
    C263    C    0.82652   0.94061   0.51615   1.000
    C264    C    0.25255   0.40376   0.00880   1.000
    C265    C    0.25255   0.40377   0.50881   1.000
    C266    C    0.25254   0.90376   0.00881   1.000
    C267    C    0.25254   0.90375   0.50880   1.000
    C268    C    0.75254   0.40377   0.00881   1.000
    C269    C    0.75253   0.40376   0.50881   1.000
    C270    C    0.75253   0.90376   0.00881   1.000
    C271    C    0.75253   0.90375   0.50880   1.000
    C272    C    0.40482   0.25549   0.25550   1.000
    C273    C    0.40481   0.25549   0.75553   1.000
    C274    C    0.40481   0.75548   0.25553   1.000
    C275    C    0.40481   0.75548   0.75553   1.000
    C276    C    0.90481   0.25549   0.25553   1.000
    C277    C    0.90480   0.25549   0.75553   1.000
    C278    C    0.90480   0.75548   0.25553   1.000
    C279    C    0.90480   0.75548   0.75553   1.000
    C280    C    0.42854   0.29696   0.09580   1.000
    C281    C    0.42853   0.29696   0.59586   1.000
    C282    C    0.42853   0.79695   0.09586   1.000
    C283    C    0.42853   0.79695   0.59586   1.000
    C284    C    0.92853   0.29696   0.09580   1.000
    C285    C    0.92852   0.29696   0.59586   1.000
    C286    C    0.92852   0.79695   0.09586   1.000
    C287    C    0.92852   0.79695   0.59586   1.000
    C288    C    0.48793   0.30988   0.22133   1.000
    C289    C    0.48793   0.30988   0.72133   1.000
    C290    C    0.48792   0.80987   0.22133   1.000
    C291    C    0.48792   0.80987   0.72133   1.000
    C292    C    0.98792   0.30988   0.22133   1.000
    C293    C    0.98791   0.30988   0.72133   1.000
    C294    C    0.98791   0.80987   0.22133   1.000
    C295    C    0.98791   0.80987   0.72133   1.000
    C296    C    0.43263   0.28722   0.16662   1.000
    C297    C    0.43263   0.28722   0.66662   1.000
    C298    C    0.43262   0.78721   0.16662   1.000
    C299    C    0.43262   0.78721   0.66662   1.000
    C300    C    0.93262   0.28722   0.16662   1.000
    C301    C    0.93261   0.28722   0.66662   1.000
    C302    C    0.93261   0.78721   0.16662   1.000
    C303    C    0.93261   0.78721   0.66662   1.000
    C304    C    0.07795   0.46871   0.42035   1.000
    C305    C    0.07795   0.46871   0.92035   1.000
    C306    C    0.07795   0.96870   0.42035   1.000
    C307    C    0.07794   0.96871   0.92035   1.000
    C308    C    0.57794   0.46871   0.42035   1.000
    C309    C    0.57794   0.46871   0.92035   1.000
    C310    C    0.57793   0.96870   0.42035   1.000
    C311    C    0.57793   0.96870   0.92035   1.000
    C312    C    0.44598   0.24189   0.44842   1.000
    C313    C    0.44598   0.24189   0.94842   1.000
    C314    C    0.44598   0.74188   0.44842   1.000
    C315    C    0.44597   0.74188   0.94842   1.000
    C316    C    0.94597   0.24189   0.44842   1.000
    C317    C    0.94597   0.24189   0.94842   1.000
    C318    C    0.94597   0.74188   0.44842   1.000
    C319    C    0.94596   0.74188   0.94842   1.000
    C320    C    0.44052   0.21777   0.01190   1.000
    C321    C    0.44052   0.21777   0.51100   1.000
    C322    C    0.44052   0.71776   0.01189   1.000
    C323    C    0.44052   0.71776   0.51189   1.000
    C324    C    0.94051   0.21777   0.01190   1.000
    C325    C    0.94051   0.21777   0.51100   1.000
    C326    C    0.94051   0.71776   0.01189   1.000
    C327    C    0.94051   0.71776   0.51189   1.000
    C328    C    0.07639   0.05960   0.48390   1.000
    C329    C    0.07638   0.05960   0.98390   1.000
    C330    C    0.07638   0.55959   0.48390   1.000
    C331    C    0.07638   0.55959   0.98390   1.000
    C332    C    0.57637   0.05960   0.48390   1.000
    C333    C    0.57637   0.05960   0.98390   1.000
    C334    C    0.57637   0.55959   0.48390   1.000
    C335    C    0.57637   0.55959   0.98390   1.000
    C336    C    0.00243   0.09613   0.49099   1.000
    C337    C    0.00243   0.09614   0.99099   1.000
    C338    C    0.00242   0.59613   0.49099   1.000
    C339    C    0.00242   0.59613   0.99099   1.000
    C340    C    0.50242   0.09614   0.49099   1.000
    C341    C    0.50241   0.09613   0.99099   1.000
    C342    C    0.50241   0.59613   0.49099   1.000
    C343    C    0.50241   0.59613   0.99099   1.000
    N344    N    0.29775   0.08113   0.04960   1.000
    N345    N    0.29774   0.08113   0.54962   1.000
    N346    N    0.29774   0.58112   0.04962   1.000
    N347    N    0.29774   0.58112   0.54962   1.000
    N348    N    0.79773   0.08113   0.04960   1.000
    N349    N    0.79773   0.08113   0.54962   1.000
    N350    N    0.79773   0.58112   0.04962   1.000
    N351    N    0.79773   0.58112   0.54962   1.000
    N352    N    0.25340   0.32615   0.48897   1.000
    N353    N    0.25339   0.32615   0.98897   1.000
    N354    N    0.25339   0.82614   0.48897   1.000
    N355    N    0.25339   0.82614   0.98897   1.000
    N356    N    0.75338   0.32615   0.48897   1.000
    N357    N    0.75338   0.32615   0.98897   1.000
    N358    N    0.75338   0.82614   0.48897   1.000
    N359    N    0.75338   0.82614   0.98897   1.000
    N360    N    0.22023   0.21019   0.22244   1.000
    N361    N    0.22023   0.21019   0.72244   1.000
    N362    N    0.22023   0.71018   0.22244   1.000
    N363    N    0.22023   0.71018   0.72244   1.000
    N364    N    0.72022   0.21019   0.22244   1.000
    N365    N    0.72022   0.21019   0.72244   1.000
    N366    N    0.72022   0.71018   0.22244   1.000
    N367    N    0.72022   0.71018   0.72244   1.000
    N368    N    0.12972   0.24778   0.31133   1.000
    N369    N    0.12971   0.24778   0.81133   1.000
    N370    N    0.12971   0.74777   0.31133   1.000
    N371    N    0.12971   0.74777   0.81133   1.000
    N372    N    0.62970   0.24778   0.31133   1.000
    N373    N    0.62970   0.24778   0.81133   1.000
    N374    N    0.62970   0.74777   0.31133   1.000
    N375    N    0.62970   0.74777   0.81133   1.000
    N376    N    0.04787   0.41886   0.45039   1.000
    N377    N    0.04786   0.41886   0.95039   1.000
    N378    N    0.04786   0.91885   0.45039   1.000
    N379    N    0.04786   0.91885   0.95039   1.000
    N380    N    0.54786   0.41886   0.45039   1.000
    N381    N    0.54785   0.41886   0.95039   1.000
    N382    N    0.54785   0.91885   0.45039   1.000
    N383    N    0.54785   0.91885   0.95039   1.000
    N384    N    0.00335   0.17381   0.01100   1.000
    N385    N    0.00335   0.17381   0.51100   1.000
    N386    N    0.00335   0.67380   0.01100   1.000
    N387    N    0.00334   0.67380   0.51100   1.000
    N388    N    0.50334   0.17381   0.01100   1.000
    N389    N    0.97033   0.28968   0.77749   1.000
    N390    N    0.97033   0.78967   0.27749   1.000
    N391    N    0.97033   0.78967   0.77749   1.000
    N392    N    0.37969   0.25231   0.18876   1.000
    N393    N    0.37969   0.25231   0.68876   1.000
    N394    N    0.37968   0.75230   0.18876   1.000
    N395    N    0.37968   0.75230   0.68876   1.000
    N396    N    0.87968   0.25231   0.18876   1.000
    N397    N    0.87968   0.25231   0.68876   1.000
    N398    N    0.87967   0.75230   0.18876   1.000
    N399    N    0.87967   0.75230   0.68876   1.000
    O400    O    0.26037   0.24955   0.07013   1.000
    O401    O    0.26036   0.24955   0.57013   1.000
    O402    O    0.26036   0.74954   0.07013   1.000
    O403    O    0.26036   0.74954   0.57013   1.000
    O404    O    0.76035   0.24955   0.07013   1.000
    O405    O    0.76035   0.24955   0.57013   1.000
    O406    O    0.76035   0.74954   0.07013   1.000
    O407    O    0.76035   0.74954   0.57013   1.000
    O408    O    0.13973   0.24461   0.07750   1.000
    O409    O    0.13972   0.24461   0.57751   1.000
    O410    O    0.13972   0.74460   0.07751   1.000
    O411    O    0.13972   0.74460   0.57751   1.000
    O412    O    0.63972   0.24461   0.07750   1.000
    O413    O    0.63972   0.24461   0.57751   1.000
    O414    O    0.63971   0.74460   0.07751   1.000
    O415    O    0.63971   0.74460   0.57751   1.000
    O416    O    0.19687   0.44494   0.02260   1.000
    O417    O    0.19687   0.44494   0.52265   1.000
    O418    O    0.19687   0.94494   0.02265   1.000
    O419    O    0.19687   0.94493   0.52264   1.000
    O420    O    0.69686   0.44495   0.02260   1.000
    O421    O    0.69686   0.44494   0.52260   1.000
    O422    O    0.69686   0.94494   0.02265   1.000
    O423    O    0.69686   0.94493   0.52264   1.000
    O424    O    0.01043   0.25010   0.42956   1.000
    O425    O    0.01043   0.25009   0.92956   1.000
    O426    O    0.01043   0.75009   0.42956   1.000
    O427    O    0.01042   0.75009   0.92956   1.000
    O428    O    0.51042   0.25010   0.42956   1.000
    O429    O    0.51042   0.25009   0.92956   1.000
    O430    O    0.51041   0.75009   0.42956   1.000
    O431    O    0.51041   0.75009   0.92956   1.000
    O432    O    0.38981   0.25568   0.42291   1.000
    O433    O    0.38980   0.25568   0.92291   1.000
    O434    O    0.38980   0.75567   0.42291   1.000
    O435    O    0.38980   0.75567   0.92290   1.000
    O436    O    0.88980   0.25568   0.42291   1.000
    O437    O    0.88979   0.25568   0.92291   1.000
    O438    O    0.88979   0.75567   0.42291   1.000
    O439    O    0.88979   0.75567   0.92290   1.000
    O440    O    0.44674   0.05468   0.47680   1.000
    O441    O    0.44673   0.05468   0.97686   1.000
    O442    O    0.44673   0.55467   0.47686   1.000
    O443    O    0.44673   0.55467   0.97685   1.000
    O444    O    0.94673   0.05468   0.47680   1.000
    O445    O    0.94672   0.05468   0.97686   1.000
    O446    O    0.94672   0.55467   0.47686   1.000
    O447    O    0.94672   0.55467   0.97685   1.000
loop_
    _geom_bond_atom_site_label_1
    _geom_bond_atom_site_label_2
    _geom_bond_distance
    _geom_bond_site_symmetry_2
    _ccdc_geom_bond_type
    H59    C119      1.10436  1_554   S
    H63    C255      1.10437  1_554   S
    H60    C253      1.09581  1_554   S
    H56    C117      1.09581  1_554   S
    H90    N350      1.03211      .   S
    H88    N348      1.03180      .   S
    H82    N346      1.03211      .   S
    H80    N344      1.03181      .   S
    C264   C256      1.52709      .   S
    C264   O416      1.25344      .   S
    C264   N353      1.34973  1_554   S
    C270   C262      1.52712      .   S
    C270   O422      1.25334      .   S
    C270   N359      1.34967  1_554   S
    C266   C258      1.52713      .   S
    C266   O418      1.25333      .   S
    C266   N355      1.34969  1_554   S
    C268   C260      1.52712      .   S
    C268   O420      1.25348      .   S
    C268   N357      1.34965  1_554   S
    N193   C322      1.44908      .   S
    N193   H135      1.03470      .   S
    N193   C343      1.34976  1_554   S
    N384   C324      1.44935  1_455   S
    N384   H129      1.03468      .   S
    N384   C337      1.34975  1_554   S
    N386   C326      1.44941  1_455   S
    N386   H131      1.03470      .   S
    N386   C339      1.34976  1_554   S
    N388   C320      1.44905      .   S
    N388   H133      1.03468      .   S
    N388   C341      1.34975  1_554   S
    C322   C282      1.55563      .   S
    C322   C315      1.54282  1_554   S
    C322   H163      1.09590  1_554   S
    C326   C286      1.55563      .   S
    C326   C319      1.54282  1_554   S
    C326   H167      1.09588  1_554   S
    C324   C284      1.55492      .   S
    C324   C317      1.54300  1_554   S
    C324   H165      1.09588  1_554   S
    C320   C280      1.55491      .   S
    C320   C313      1.54300  1_554   S
    C320   H162      1.09586  1_554   S
    C262   H78       1.09848      .   S
    C262   C241      1.52978  1_565   S
    C262   H71       1.10248  1_554   S
    C260   H76       1.09847      .   S
    C260   C243      1.52949      .   S
    C260   H69       1.10247  1_554   S
    C258   H74       1.09846      .   S
    C258   C237      1.52979  1_565   S
    C258   H67       1.10230  1_554   S
    C256   H72       1.09848      .   S
    C256   C239      1.52949      .   S
    C256   H65       1.10247  1_554   S
    H92    N344      1.02868      .   S
    H94    N346      1.02877      .   S
    H96    N348      1.02870      .   S
    H98    N350      1.02877      .   S
    H175   C335      1.10203  1_554   S
    H171   C331      1.10240  1_554   S
    H173   C333      1.10259  1_554   S
    H169   C329      1.10259  1_554   S
    N344   C237      1.48682      .   S
    N348   C241      1.48683      .   S
    N346   C239      1.48641      .   S
    N350   C243      1.48641      .   S
    C245   O400      1.29175      .   S
    C245   O408      1.25019      .   S
    C245   C117      1.54296  1_554   S
    C247   O402      1.29175      .   S
    C247   O410      1.25029      .   S
    C247   C119      1.54298  1_554   S
    C249   O404      1.29175      .   S
    C249   O412      1.25018      .   S
    C249   C253      1.54296  1_554   S
    C251   O406      1.29175      .   S
    C251   O414      1.25028      .   S
    C251   C255      1.54296  1_554   S
    C239   H50       1.09681      .   S
    C239   H42       1.09825      .   S
    C243   H54       1.09681      .   S
    C243   H46       1.09825      .   S
    C237   H48       1.09683      .   S
    C237   H40       1.09826      .   S
    C241   H52       1.09683      .   S
    C241   H44       1.09745      .   S
    H127   C286      1.09898      .   S
    H123   C282      1.09898      .   S
    H121   C280      1.09862      .   S
    H125   C284      1.09861      .   S
    C284   H112      1.10093      .   S
    C284   C300      1.49140      .   S
    C280   H108      1.10093      .   S
    C280   C296      1.49139      .   S
    C286   H114      1.10130      .   S
    C286   C302      1.49024      .   S
    C282   H110      1.10130      .   S
    C282   C298      1.49024      .   S
    C302   N398      1.39171      .   S
    C302   C294      1.37609      .   S
    C300   N396      1.39172      .   S
    C300   C292      1.37609      .   S
    C298   N394      1.39172      .   S
    C298   C290      1.37609      .   S
    C296   N392      1.39172      .   S
    C296   C288      1.37609      .   S
    N396   C276      1.35267      .   S
    N398   C278      1.35265      .   S
    N394   C274      1.35266      .   S
    N392   C272      1.35211      .   S
    H6     C211      1.08327      .   S
    H2     C207      1.08325      .   S
    H0     C205      1.08309      .   S
    H4     C209      1.08310      .   S
    C294   H139      1.08414  1_655   S
    C294   N390      1.38507      .   S
    C292   H137      1.08409  1_655   S
    C292   N199      1.38507      .   S
    C290   H143      1.08380      .   S
    C290   N197      1.38505      .   S
    C288   H141      1.08373      .   S
    C288   N195      1.38507      .   S
    N364   C209      1.34809      .   S
    N364   C225      1.38509      .   S
    N366   C211      1.34809      .   S
    N366   C227      1.38509      .   S
    N362   C207      1.34809      .   S
    N362   C223      1.38510      .   S
    N360   C205      1.34809      .   S
    N360   C221      1.38510      .   S
    C207   N370      1.35258      .   S
    C205   N368      1.35257      .   S
    C209   N372      1.35257      .   S
    C211   N374      1.35258      .   S
    C272   N195      1.34816      .   S
    C272   H100      1.08269      .   S
    C276   N199      1.34814      .   S
    C276   H104      1.08222      .   S
    C274   N197      1.34814      .   S
    C274   H102      1.08317      .   S
    C278   N390      1.34813      .   S
    C278   H106      1.08317      .   S
    H38    C227      1.08375      .   S
    H34    C223      1.08374      .   S
    H36    C225      1.08381      .   S
    H32    C221      1.08380      .   S
    C223   C231      1.37618      .   S
    C225   C233      1.37617      .   S
    C227   C235      1.37619      .   S
    C221   C229      1.37617      .   S
    N368   C229      1.39190      .   S
    N370   C231      1.39190      .   S
    N372   C233      1.39189      .   S
    N374   C235      1.39190      .   S
    C235   C219      1.49039      .   S
    C233   C217      1.49040      .   S
    C231   C215      1.49039      .   S
    C229   C213      1.49039      .   S
    H151   C310      1.09825      .   S
    H145   C304      1.09825      .   S
    H149   C308      1.09825      .   S
    H147   C306      1.09826      .   S
    H10    C215      1.10127      .   S
    H14    C219      1.10125      .   S
    H12    C217      1.10127      .   S
    H8     C213      1.10127      .   S
    H153   C304      1.09685      .   S
    H155   C306      1.09685      .   S
    H157   C308      1.09685      .   S
    H159   C310      1.09685      .   S
    C213   H16       1.09890      .   S
    C213   C116      1.55563      .   S
    C215   H18       1.09896      .   S
    C215   C118      1.55563      .   S
    C217   H20       1.09890      .   S
    C217   C120      1.55564      .   S
    C219   H22       1.09897      .   S
    C219   C254      1.55563      .   S
    C310   N382      1.48646      .   S
    C310   C332      1.52983  1_565   S
    C306   N378      1.48646      .   S
    C306   C328      1.52981  1_565   S
    C308   N380      1.48646      .   S
    C308   C334      1.52958      .   S
    C304   N376      1.48646      .   S
    C304   C330      1.52958      .   S
    O434   C314      1.25029      .   S
    O438   C318      1.25029      .   S
    O436   C316      1.25029      .   S
    O432   C312      1.25029      .   S
    O424   C316      1.29210  1_455   S
    O430   C314      1.29171      .   S
    O428   C312      1.29171      .   S
    O426   C318      1.29209  1_455   S
    C314   C323      1.54287      .   S
    C318   C327      1.54287      .   S
    C312   C321      1.52617      .   S
    C316   C325      1.52617      .   S
    N376   H201      1.02903  1_455   S
    N376   H185      1.03226      .   S
    N382   H87       1.02864      .   S
    N382   H191      1.03089      .   S
    N378   H203      1.02900  1_455   S
    N378   H187      1.03211      .   S
    N380   H85       1.02868      .   S
    N380   H189      1.03226      .   S
    H66    C259      1.10235      .   S
    H64    C257      1.10235      .   S
    H70    C263      1.10236      .   S
    H68    C261      1.10235      .   S
    H183   C334      1.09922      .   S
    H177   C328      1.09846      .   S
    H181   C332      1.09848      .   S
    H179   C330      1.09846      .   S
    H30    N358      1.03466      .   S
    H28    N356      1.03468      .   S
    H26    N354      1.03466      .   S
    H24    N352      1.03468      .   S
    O444   C336      1.25336  1_655   S
    O440   C340      1.25303      .   S
    O442   C342      1.25318      .   S
    O446   C338      1.25352  1_655   S
    C330   C338      1.52715      .   S
    C330   H172      1.10240      .   S
    C334   C342      1.52715      .   S
    C334   H176      1.10240      .   S
    C328   C336      1.52713      .   S
    C328   H170      1.10240      .   S
    C332   C340      1.52713      .   S
    C332   H174      1.10241      .   S
    C120   N356      1.44909      .   S
    C120   H61       1.09585      .   S
    C120   C250      1.54301      .   S
    C254   N358      1.44909      .   S
    C254   H62       1.09588      .   S
    C254   C252      1.53175      .   S
    C116   N352      1.44909      .   S
    C116   H57       1.09585      .   S
    C116   C246      1.54301      .   S
    C118   N354      1.44910      .   S
    C118   H58       1.09589      .   S
    C118   C248      1.53174      .   S
    N358   C271      1.34968      .   S
    N352   C265      1.34962      .   S
    N354   C267      1.34968      .   S
    N356   C269      1.34960      .   S
    C338   N387      1.34969      .   S
    C336   N385      1.34971      .   S
    C342   N194      1.34967      .   S
    C340   N192      1.34969      .   S
    H166   C325      1.09794      .   S
    H168   C327      1.09588      .   S
    H161   C321      1.09794      .   S
    H164   C323      1.09588      .   S
    H91    N351      1.03212      .   S
    H89    N349      1.03211      .   S
    H83    N347      1.03212      .   S
    H81    N345      1.03210      .   S
    C271   C263      1.52709      .   S
    C271   O423      1.25333      .   S
    C267   C259      1.52709      .   S
    C267   O419      1.25333      .   S
    C269   C261      1.52712      .   S
    C269   O421      1.25347      .   S
    C265   C257      1.52712      .   S
    C265   O417      1.25334      .   S
    N194   C323      1.44909      .   S
    N194   H136      1.03470      .   S
    N192   C321      1.45448      .   S
    N192   H134      1.03468      .   S
    N387   C327      1.44941  1_455   S
    N387   H132      1.03469      .   S
    C321   C281      1.56472      .   S
    N385   C325      1.45481  1_455   S
    N385   H130      1.03467      .   S
    C325   C285      1.56472      .   S
    C323   C283      1.55563      .   S
    C327   C287      1.55563      .   S
    C257   H73       1.09846      .   S
    C257   C240      1.52953      .   S
    C261   H77       1.09846      .   S
    C261   C244      1.52954      .   S
    C259   H75       1.09848      .   S
    C259   C238      1.52974  1_565   S
    C263   H79       1.09847      .   S
    C263   C242      1.52979  1_565   S
    H95    N347      1.02877      .   S
    H99    N351      1.02877      .   S
    H97    N349      1.02877      .   S
    H93    N345      1.02879      .   S
    N351   C244      1.48653      .   S
    N349   C242      1.48653      .   S
    N347   C240      1.48653      .   S
    N345   C238      1.48640      .   S
    C248   O403      1.29588      .   S
    C248   O411      1.25633      .   S
    C252   O407      1.29586      .   S
    C252   O415      1.25635      .   S
    C250   O405      1.29174      .   S
    C250   O413      1.25029      .   S
    C246   O401      1.29174      .   S
    C246   O409      1.25031      .   S
    C238   H49       1.09681      .   S
    C238   H41       1.09826      .   S
    C240   H51       1.09681      .   S
    C240   H43       1.09826      .   S
    C242   H53       1.09681      .   S
    C242   H45       1.09810      .   S
    C244   H55       1.09683      .   S
    C244   H47       1.09744      .   S
    H122   C281      1.09936      .   S
    H124   C283      1.09897      .   S
    H126   C285      1.09899      .   S
    H128   C287      1.09897      .   S
    C281   H109      1.10130      .   S
    C281   C297      1.49023      .   S
    C287   H115      1.10130      .   S
    C287   C303      1.49023      .   S
    C285   H113      1.10130      .   S
    C285   C301      1.49023      .   S
    C283   H111      1.10130      .   S
    C283   C299      1.49023      .   S
    C303   N399      1.39171      .   S
    C303   C295      1.37609      .   S
    C301   N397      1.39172      .   S
    C301   C293      1.37610      .   S
    C299   N395      1.39172      .   S
    C299   C291      1.37609      .   S
    C297   N393      1.39172      .   S
    C297   C289      1.37610      .   S
    N399   C279      1.35265      .   S
    N397   C277      1.35267      .   S
    N395   C275      1.35266      .   S
    N393   C273      1.35267      .   S
    H1     C206      1.08451      .   S
    H5     C210      1.08453      .   S
    H3     C208      1.08327      .   S
    H7     C212      1.08325      .   S
    C291   H144      1.08380      .   S
    C291   N198      1.38507      .   S
    C289   H142      1.08375      .   S
    C289   N196      1.38505      .   S
    C293   H138      1.08409  1_655   S
    C293   N389      1.38505      .   S
    C295   H140      1.08423  1_655   S
    C295   N391      1.38505      .   S
    N367   C212      1.34809      .   S
    N367   C228      1.38510      .   S
    N365   C210      1.34809      .   S
    N365   C226      1.38509      .   S
    N363   C208      1.34809      .   S
    N363   C224      1.38509      .   S
    N361   C206      1.34809      .   S
    N361   C222      1.38509      .   S
    C210   N373      1.35257      .   S
    C206   N369      1.35257      .   S
    C208   N371      1.35258      .   S
    C212   N375      1.35259      .   S
    C277   N389      1.34814      .   S
    C277   H105      1.08317      .   S
    C275   N198      1.34813      .   S
    C275   H103      1.08317      .   S
    C273   N196      1.34814      .   S
    C273   H101      1.08317      .   S
    C279   N391      1.34814      .   S
    C279   H107      1.08317      .   S
    H37    C226      1.08372      .   S
    H33    C222      1.08372      .   S
    H35    C224      1.08376      .   S
    H39    C228      1.08374      .   S
    C222   C230      1.37617      .   S
    C224   C232      1.37617      .   S
    C226   C234      1.37617      .   S
    C228   C236      1.37619      .   S
    N375   C236      1.39190      .   S
    N373   C234      1.39189      .   S
    N371   C232      1.39190      .   S
    N369   C230      1.39190      .   S
    C230   C214      1.49039      .   S
    C236   C220      1.48846      .   S
    C234   C218      1.49040      .   S
    C232   C216      1.48847      .   S
    H152   C311      1.09824      .   S
    H150   C309      1.09825      .   S
    H148   C307      1.09824      .   S
    H146   C305      1.09826      .   S
    H11    C216      1.10141      .   S
    H15    C220      1.10142      .   S
    H13    C218      1.10127      .   S
    H9     C214      1.10127      .   S
    H156   C307      1.09685      .   S
    H160   C311      1.09685      .   S
    H158   C309      1.09685      .   S
    H154   C305      1.09683      .   S
    C216   H19       1.09950      .   S
    C216   C119      1.55665      .   S
    C220   H23       1.09950      .   S
    C220   C255      1.55664      .   S
    C214   H17       1.09897      .   S
    C214   C117      1.55564      .   S
    C218   H21       1.09896      .   S
    C218   C253      1.55564      .   S
    C305   N377      1.48645      .   S
    C305   C331      1.52958      .   S
    C307   N379      1.48649      .   S
    C307   C329      1.52981  1_565   S
    C309   N381      1.48646      .   S
    C309   C335      1.52958      .   S
    C311   N383      1.48648      .   S
    C311   C333      1.52981  1_565   S
    O439   C319      1.25039      .   S
    O435   C315      1.25039      .   S
    O437   C317      1.25029      .   S
    O433   C313      1.25028      .   S
    O425   C317      1.29210  1_455   S
    O427   C319      1.29208  1_455   S
    O429   C313      1.29171      .   S
    O431   C315      1.29170      .   S
    N383   H200      1.02864      .   S
    N383   H84       1.03089      .   S
    N377   H202      1.02861  1_455   S
    N377   H186      1.03090      .   S
    N379   H204      1.02901  1_455   S
    N379   H188      1.03224      .   S
    N381   H86       1.02826      .   S
    N381   H190      1.03090      .   S
    H184   C335      1.09846      .   S
    H180   C331      1.09846      .   S
    H182   C333      1.09838      .   S
    H178   C329      1.09838      .   S
    H31    N359      1.03467      .   S
    H29    N357      1.03469      .   S
    H27    N355      1.03466      .   S
    H25    N353      1.03466      .   S
    O447   C339      1.25348  1_655   S
    O443   C343      1.25314      .   S
    O445   C337      1.25352  1_655   S
    O441   C341      1.25317      .   S
    C329   C337      1.52713      .   S
    C331   C339      1.52715      .   S
    C333   C341      1.52713      .   S
    C335   C343      1.52714      .   S
    C255   N359      1.44910      .   S
    C253   N357      1.44909      .   S
    C119   N355      1.44909      .   S
    C117   N353      1.44908      .   S
