# CIF file generated by openbabel 2.4.90, see http://openbabel.sf.net
data_I
_chemical_name_common ''
_cell_length_a 18.665
_cell_length_b 19.524
_cell_length_c 19.476
_cell_angle_alpha 122.217
_cell_angle_beta 89.958
_cell_angle_gamma 90.118
_space_group_name_H-M_alt 'P 1'
_space_group_name_Hall 'P 1'
loop_
    _symmetry_equiv_pos_as_xyz
    x,y,z
loop_
    _atom_site_label
    _atom_site_type_symbol
    _atom_site_fract_x
    _atom_site_fract_y
    _atom_site_fract_z
    _atom_site_occupancy
    Zn0     Zn   0.28434   0.20386   0.63740   1.000
    Zn1     Zn   0.28434   0.70385   0.13739   1.000
    Zn2     Zn   0.28434   0.70385   0.63739   1.000
    Zn3     Zn   0.78434   0.20386   0.13740   1.000
    Zn4     Zn   0.78433   0.20386   0.63740   1.000
    Zn5     Zn   0.78433   0.70385   0.13739   1.000
    Zn6     Zn   0.78433   0.70385   0.63739   1.000
    Zn7     Zn   0.03440   0.29609   0.36253   1.000
    Zn8     Zn   0.03440   0.29609   0.86253   1.000
    Zn9     Zn   0.03440   0.79608   0.36253   1.000
    Zn10    Zn   0.03440   0.79608   0.86253   1.000
    Zn11    Zn   0.53439   0.29609   0.36253   1.000
    Zn12    Zn   0.53439   0.29609   0.86253   1.000
    Zn13    Zn   0.53439   0.79608   0.36253   1.000
    Zn14    Zn   0.53439   0.79608   0.86253   1.000
    H15     H    0.12617   0.26429   0.20979   1.000
    H16     H    0.12616   0.26429   0.70970   1.000
    H17     H    0.12616   0.76428   0.20978   1.000
    H18     H    0.12616   0.76428   0.70978   1.000
    H19     H    0.62616   0.26429   0.20979   1.000
    H20     H    0.62615   0.26429   0.70970   1.000
    H21     H    0.62615   0.76428   0.20978   1.000
    H22     H    0.62615   0.76428   0.70978   1.000
    H23     H    0.21954   0.15891   0.39577   1.000
    H24     H    0.21954   0.15891   0.89577   1.000
    H25     H    0.21954   0.65890   0.39577   1.000
    H26     H    0.21953   0.65890   0.89570   1.000
    H27     H    0.71953   0.15891   0.39577   1.000
    H28     H    0.71953   0.15891   0.89577   1.000
    H29     H    0.71952   0.65890   0.39577   1.000
    H30     H    0.71952   0.65890   0.89570   1.000
    H31     H    0.12576   0.17850   0.40630   1.000
    Zn32    Zn   0.28435   0.20386   0.13740   1.000
    H33     H    0.12576   0.17850   0.90631   1.000
    H34     H    0.12576   0.67849   0.40631   1.000
    H35     H    0.12576   0.67849   0.90631   1.000
    H36     H    0.62575   0.17850   0.40630   1.000
    H37     H    0.62575   0.17850   0.90631   1.000
    H38     H    0.62575   0.67849   0.40631   1.000
    H39     H    0.62574   0.67849   0.90631   1.000
    H40     H    0.30204   0.29622   0.47342   1.000
    H41     H    0.30203   0.29622   0.97342   1.000
    H42     H    0.30203   0.79621   0.47342   1.000
    H43     H    0.30203   0.79621   0.97342   1.000
    H44     H    0.80203   0.29622   0.47342   1.000
    H45     H    0.80202   0.29622   0.97342   1.000
    H46     H    0.80202   0.79621   0.47342   1.000
    H47     H    0.80202   0.79621   0.97342   1.000
    H48     H    0.28751   0.16053   0.27642   1.000
    H49     H    0.28751   0.16052   0.77640   1.000
    H50     H    0.28751   0.66052   0.27641   1.000
    H51     H    0.28750   0.66052   0.77641   1.000
    H52     H    0.78750   0.16052   0.27642   1.000
    H53     H    0.78750   0.16052   0.77640   1.000
    H54     H    0.78750   0.66052   0.27641   1.000
    H55     H    0.78749   0.66052   0.77641   1.000
    H56     H    0.29741   0.04459   0.13355   1.000
    H57     H    0.29741   0.04458   0.63354   1.000
    H58     H    0.29740   0.54458   0.13354   1.000
    H59     H    0.29740   0.54458   0.63355   1.000
    H60     H    0.79740   0.04459   0.13350   1.000
    H61     H    0.79739   0.04459   0.63354   1.000
    H62     H    0.79739   0.54458   0.13354   1.000
    H63     H    0.79739   0.54458   0.63350   1.000
    H64     H    0.38340   0.05203   0.09831   1.000
    H65     H    0.38340   0.05203   0.59830   1.000
    H66     H    0.38339   0.55202   0.09830   1.000
    H67     H    0.38339   0.55202   0.59831   1.000
    H68     H    0.88339   0.05203   0.09831   1.000
    H69     H    0.88338   0.05203   0.59831   1.000
    H70     H    0.88338   0.55202   0.09830   1.000
    H71     H    0.88338   0.55202   0.59831   1.000
    H72     H    0.14401   0.32184   0.00317   1.000
    H73     H    0.14401   0.32184   0.50317   1.000
    H74     H    0.14400   0.82183   0.50316   1.000
    H75     H    0.14400   0.82183   0.00000   1.000
    H76     H    0.64400   0.32184   0.00317   1.000
    H77     H    0.64400   0.32184   0.50317   1.000
    H78     H    0.64399   0.82183   0.50316   1.000
    H79     H    0.64399   0.82183   0.00000   1.000
    H80     H    0.34288   0.42944   0.45661   1.000
    H81     H    0.34287   0.42944   0.95660   1.000
    H82     H    0.34287   0.92943   0.45661   1.000
    H83     H    0.34287   0.92943   0.95661   1.000
    H84     H    0.84286   0.42944   0.45661   1.000
    H85     H    0.84286   0.42944   0.95660   1.000
    H86     H    0.84286   0.92943   0.45661   1.000
    H87     H    0.84286   0.92943   0.95660   1.000
    H88     H    0.36620   0.40921   0.03132   1.000
    H89     H    0.36619   0.40921   0.53132   1.000
    H90     H    0.36619   0.90921   0.03132   1.000
    H91     H    0.36619   0.90920   0.53132   1.000
    H92     H    0.86619   0.40921   0.03132   1.000
    H93     H    0.86618   0.40921   0.53132   1.000
    H94     H    0.86618   0.90921   0.03132   1.000
    H95     H    0.86618   0.90920   0.53132   1.000
    H96     H    0.33204   0.07477   0.00498   1.000
    H97     H    0.33203   0.07476   0.50498   1.000
    H98     H    0.33203   0.57476   0.00498   1.000
    H99     H    0.33203   0.57476   0.50498   1.000
    H100    H    0.58230   0.92523   0.99480   1.000
    H101    H    0.49911   0.44362   0.47639   1.000
    H102    H    0.49910   0.44362   0.97630   1.000
    H103    H    0.49910   0.94361   0.47638   1.000
    H104    H    0.83202   0.07477   0.00498   1.000
    H105    H    0.83202   0.07476   0.50498   1.000
    H106    H    0.83202   0.57476   0.00498   1.000
    H107    H    0.83202   0.57476   0.50498   1.000
    H108    H    0.24897   0.05605   0.02375   1.000
    H109    H    0.24896   0.05605   0.52375   1.000
    H110    H    0.24896   0.55604   0.02375   1.000
    H111    H    0.24896   0.55604   0.52375   1.000
    H112    H    0.74895   0.05605   0.02375   1.000
    H113    H    0.74895   0.05605   0.52375   1.000
    H114    H    0.74895   0.55604   0.02375   1.000
    H115    H    0.74895   0.55604   0.52375   1.000
    H116    H    0.37590   0.23589   0.29030   1.000
    H117    H    0.37589   0.23589   0.79036   1.000
    H118    H    0.37589   0.73588   0.29036   1.000
    H119    H    0.37589   0.73588   0.79036   1.000
    H120    H    0.87589   0.23589   0.29030   1.000
    H121    H    0.87588   0.23589   0.79036   1.000
    H122    H    0.87588   0.73588   0.29036   1.000
    H123    H    0.87588   0.73588   0.79036   1.000
    H124    H    0.47003   0.34092   0.10411   1.000
    H125    H    0.47003   0.34092   0.60410   1.000
    H126    H    0.47003   0.84091   0.10410   1.000
    H127    H    0.47003   0.84091   0.60410   1.000
    H128    H    0.97002   0.34092   0.10411   1.000
    H129    H    0.97002   0.34092   0.60410   1.000
    H130    H    0.97002   0.84091   0.10410   1.000
    H131    H    0.97001   0.84091   0.60410   1.000
    C132    C    0.19048   0.28207   0.48808   1.000
    C133    C    0.19048   0.28207   0.98808   1.000
    C134    C    0.19048   0.78206   0.48808   1.000
    C135    C    0.19048   0.78206   0.98808   1.000
    C136    C    0.69047   0.28207   0.48808   1.000
    H137    H    0.37619   0.32139   0.09368   1.000
    H138    H    0.37618   0.32139   0.59360   1.000
    H139    H    0.37618   0.82138   0.09367   1.000
    H140    H    0.37618   0.82138   0.59367   1.000
    H141    H    0.87618   0.32139   0.09368   1.000
    H142    H    0.87617   0.32139   0.59367   1.000
    H143    H    0.87617   0.82138   0.09367   1.000
    H144    H    0.87617   0.82138   0.59367   1.000
    H145    H    0.05201   0.20394   0.02682   1.000
    H146    H    0.05200   0.20393   0.52682   1.000
    H147    H    0.05200   0.70393   0.02682   1.000
    H148    H    0.05200   0.70393   0.52680   1.000
    H149    H    0.55200   0.20394   0.02682   1.000
    H150    H    0.55199   0.20393   0.52682   1.000
    H151    H    0.55199   0.70393   0.02682   1.000
    H152    H    0.55199   0.70393   0.52680   1.000
    H153    H    0.03801   0.33909   0.22333   1.000
    H154    H    0.03801   0.33909   0.72333   1.000
    H155    H    0.03801   0.83908   0.22332   1.000
    H156    H    0.03801   0.83908   0.72330   1.000
    H157    H    0.53800   0.33909   0.22333   1.000
    H158    H    0.53800   0.33909   0.72333   1.000
    H159    H    0.53800   0.83908   0.22332   1.000
    H160    H    0.53800   0.83908   0.72332   1.000
    H161    H    0.04721   0.45548   0.36653   1.000
    H162    H    0.04721   0.45548   0.86653   1.000
    H163    H    0.04720   0.95547   0.36653   1.000
    H164    H    0.04720   0.95547   0.86653   1.000
    H165    H    0.54720   0.45548   0.36653   1.000
    H166    H    0.54720   0.45548   0.86653   1.000
    H167    H    0.54720   0.95547   0.36653   1.000
    H168    H    0.54719   0.95547   0.86653   1.000
    H169    H    0.13330   0.44853   0.40172   1.000
    H170    H    0.13330   0.44853   0.90172   1.000
    H171    H    0.13330   0.94852   0.40172   1.000
    H172    H    0.13330   0.94853   0.90172   1.000
    H173    H    0.63329   0.44853   0.40172   1.000
    H174    H    0.63329   0.44853   0.90172   1.000
    H175    H    0.63329   0.94852   0.40172   1.000
    H176    H    0.63329   0.94852   0.90172   1.000
    H177    H    0.39394   0.17796   0.49688   1.000
    H178    H    0.39394   0.17796   0.99688   1.000
    H179    H    0.39393   0.67795   0.99688   1.000
    H180    H    0.39393   0.67795   0.49688   1.000
    H181    H    0.89393   0.17796   0.99688   1.000
    H182    H    0.89393   0.17796   0.49688   1.000
    H183    H    0.89392   0.67795   0.99688   1.000
    H184    H    0.89392   0.67795   0.49688   1.000
    H185    H    0.09257   0.07090   0.04353   1.000
    H186    H    0.09257   0.07090   0.54352   1.000
    H187    H    0.09257   0.57090   0.04352   1.000
    H188    H    0.09256   0.57089   0.54352   1.000
    H189    H    0.59256   0.07090   0.04353   1.000
    H190    H    0.59256   0.07090   0.54352   1.000
    H191    H    0.59256   0.57090   0.04350   1.000
    H192    H    0.59255   0.57089   0.54352   1.000
    H193    H    0.11613   0.09119   0.46887   1.000
    H194    H    0.11613   0.09119   0.96888   1.000
    H195    H    0.11613   0.59118   0.46887   1.000
    H196    H    0.11612   0.59118   0.96887   1.000
    H197    H    0.61612   0.09119   0.46887   1.000
    H198    H    0.61612   0.09119   0.96888   1.000
    H199    H    0.61611   0.59118   0.46880   1.000
    H200    H    0.61611   0.59118   0.96887   1.000
    H201    H    0.08232   0.42524   0.49489   1.000
    H202    H    0.08232   0.42524   0.99480   1.000
    H203    H    0.08232   0.92523   0.49488   1.000
    H204    H    0.08231   0.92523   0.99489   1.000
    H205    H    0.58231   0.42524   0.49489   1.000
    H206    H    0.58231   0.42524   0.99480   1.000
    H207    H    0.58231   0.92523   0.49480   1.000
    N208    N    0.50334   0.17381   0.51100   1.000
    N209    N    0.50334   0.67380   0.01100   1.000
    N210    N    0.50333   0.67380   0.51100   1.000
    N211    N    0.47035   0.28968   0.27749   1.000
    N212    N    0.47034   0.28968   0.77749   1.000
    N213    N    0.47034   0.78967   0.27749   1.000
    N214    N    0.47034   0.78967   0.77749   1.000
    N215    N    0.97033   0.28968   0.27749   1.000
    H216    H    0.49910   0.94361   0.97638   1.000
    H217    H    0.99910   0.44362   0.47639   1.000
    H218    H    0.99909   0.44362   0.97630   1.000
    H219    H    0.99909   0.94361   0.47638   1.000
    H220    H    0.99909   0.94361   0.97638   1.000
    C221    C    0.15490   0.24458   0.24454   1.000
    C222    C    0.15490   0.24457   0.74454   1.000
    C223    C    0.15490   0.74457   0.24454   1.000
    C224    C    0.15489   0.74457   0.74454   1.000
    C225    C    0.65489   0.24457   0.24454   1.000
    C226    C    0.65489   0.24457   0.74454   1.000
    C227    C    0.65489   0.74457   0.24454   1.000
    C228    C    0.65488   0.74457   0.74454   1.000
    C229    C    0.17823   0.20291   0.40410   1.000
    C230    C    0.17822   0.20291   0.90410   1.000
    C231    C    0.17822   0.70290   0.40410   1.000
    C232    C    0.17822   0.70290   0.90400   1.000
    C233    C    0.67822   0.20291   0.40410   1.000
    C234    C    0.67821   0.20291   0.90410   1.000
    C235    C    0.67821   0.70290   0.40410   1.000
    C236    C    0.67821   0.70290   0.90400   1.000
    C237    C    0.23763   0.18991   0.27854   1.000
    C238    C    0.23762   0.18991   0.77854   1.000
    C239    C    0.23762   0.68990   0.27854   1.000
    C240    C    0.23762   0.68990   0.77854   1.000
    C241    C    0.73762   0.18991   0.27854   1.000
    C242    C    0.73761   0.18991   0.77854   1.000
    C243    C    0.73761   0.68990   0.27854   1.000
    C244    C    0.73761   0.68990   0.77854   1.000
    C245    C    0.18241   0.21270   0.33336   1.000
    C246    C    0.18241   0.21269   0.83336   1.000
    C247    C    0.18240   0.71269   0.33336   1.000
    C248    C    0.18240   0.71269   0.83336   1.000
    C249    C    0.68240   0.21270   0.33336   1.000
    C250    C    0.68240   0.21269   0.83336   1.000
    C251    C    0.68239   0.71269   0.33336   1.000
    C252    C    0.68239   0.71269   0.83336   1.000
    C253    C    0.32805   0.03152   0.07971   1.000
    C254    C    0.32805   0.03151   0.57970   1.000
    C255    C    0.32805   0.53151   0.07970   1.000
    C256    C    0.32804   0.53151   0.57971   1.000
    C257    C    0.82804   0.03152   0.07971   1.000
    C258    C    0.82804   0.03152   0.57971   1.000
    C259    C    0.82804   0.53151   0.07970   1.000
    C260    C    0.82803   0.53151   0.57971   1.000
    C261    C    0.19594   0.25803   0.05160   1.000
    C262    C    0.19594   0.25802   0.55160   1.000
    C263    C    0.19594   0.75802   0.05160   1.000
    C264    C    0.19593   0.75802   0.55100   1.000
    C265    C    0.69593   0.25803   0.05160   1.000
    C266    C    0.69593   0.25802   0.55160   1.000
    C267    C    0.69593   0.75802   0.05160   1.000
    C268    C    0.69592   0.75802   0.55100   1.000
    C269    C    0.69047   0.28207   0.98808   1.000
    C270    C    0.69047   0.78206   0.48808   1.000
    C271    C    0.69046   0.78206   0.98808   1.000
    C272    C    0.32654   0.44062   0.01615   1.000
    C273    C    0.32654   0.44062   0.51615   1.000
    C274    C    0.32654   0.94062   0.01615   1.000
    C275    C    0.32653   0.94061   0.51615   1.000
    C276    C    0.82653   0.44062   0.01615   1.000
    C277    C    0.82653   0.44062   0.51615   1.000
    C278    C    0.82652   0.94062   0.01615   1.000
    C279    C    0.82652   0.94061   0.51615   1.000
    C280    C    0.25255   0.40376   0.00880   1.000
    C281    C    0.25255   0.40377   0.50881   1.000
    C282    C    0.25254   0.90376   0.00881   1.000
    C283    C    0.25254   0.90375   0.50880   1.000
    C284    C    0.75254   0.40377   0.00881   1.000
    C285    C    0.75253   0.40376   0.50881   1.000
    C286    C    0.75253   0.90376   0.00881   1.000
    C287    C    0.75253   0.90375   0.50880   1.000
    C288    C    0.40482   0.25549   0.25550   1.000
    C289    C    0.40481   0.25549   0.75553   1.000
    C290    C    0.40481   0.75548   0.25553   1.000
    C291    C    0.40481   0.75548   0.75553   1.000
    C292    C    0.90481   0.25549   0.25553   1.000
    C293    C    0.90480   0.25549   0.75553   1.000
    C294    C    0.90480   0.75548   0.25553   1.000
    C295    C    0.90480   0.75548   0.75553   1.000
    C296    C    0.42854   0.29696   0.09580   1.000
    C297    C    0.42853   0.29696   0.59586   1.000
    C298    C    0.42853   0.79695   0.09586   1.000
    C299    C    0.42853   0.79695   0.59586   1.000
    C300    C    0.92853   0.29696   0.09580   1.000
    C301    C    0.92852   0.29696   0.59586   1.000
    C302    C    0.92852   0.79695   0.09586   1.000
    C303    C    0.92852   0.79695   0.59586   1.000
    C304    C    0.48793   0.30988   0.22133   1.000
    C305    C    0.48793   0.30988   0.72133   1.000
    C306    C    0.48792   0.80987   0.22133   1.000
    C307    C    0.48792   0.80987   0.72133   1.000
    C308    C    0.98792   0.30988   0.22133   1.000
    C309    C    0.98791   0.30988   0.72133   1.000
    C310    C    0.98791   0.80987   0.22133   1.000
    C311    C    0.98791   0.80987   0.72133   1.000
    C312    C    0.43263   0.28722   0.16662   1.000
    C313    C    0.43263   0.28722   0.66662   1.000
    C314    C    0.43262   0.78721   0.16662   1.000
    C315    C    0.43262   0.78721   0.66662   1.000
    C316    C    0.93262   0.28722   0.16662   1.000
    C317    C    0.93261   0.28722   0.66662   1.000
    C318    C    0.93261   0.78721   0.16662   1.000
    C319    C    0.93261   0.78721   0.66662   1.000
    C320    C    0.07795   0.46871   0.42035   1.000
    C321    C    0.07795   0.46871   0.92035   1.000
    C322    C    0.07795   0.96870   0.42035   1.000
    C323    C    0.07794   0.96871   0.92035   1.000
    C324    C    0.57794   0.46871   0.42035   1.000
    C325    C    0.57794   0.46871   0.92035   1.000
    C326    C    0.57793   0.96870   0.42035   1.000
    C327    C    0.57793   0.96870   0.92035   1.000
    C328    C    0.44598   0.24189   0.44842   1.000
    C329    C    0.44598   0.24189   0.94842   1.000
    C330    C    0.44598   0.74188   0.44842   1.000
    C331    C    0.44597   0.74188   0.94842   1.000
    C332    C    0.94597   0.24189   0.44842   1.000
    C333    C    0.94597   0.24189   0.94842   1.000
    C334    C    0.94597   0.74188   0.44842   1.000
    C335    C    0.94596   0.74188   0.94842   1.000
    C336    C    0.44052   0.21777   0.01190   1.000
    C337    C    0.44052   0.21777   0.51100   1.000
    C338    C    0.44052   0.71776   0.01189   1.000
    C339    C    0.44052   0.71776   0.51189   1.000
    C340    C    0.94051   0.21777   0.01190   1.000
    C341    C    0.94051   0.21777   0.51100   1.000
    C342    C    0.94051   0.71776   0.01189   1.000
    C343    C    0.94051   0.71776   0.51189   1.000
    C344    C    0.07639   0.05960   0.48390   1.000
    C345    C    0.07638   0.05960   0.98390   1.000
    C346    C    0.07638   0.55959   0.48390   1.000
    C347    C    0.07638   0.55959   0.98390   1.000
    C348    C    0.57637   0.05960   0.48390   1.000
    C349    C    0.57637   0.05960   0.98390   1.000
    C350    C    0.57637   0.55959   0.48390   1.000
    C351    C    0.57637   0.55959   0.98390   1.000
    C352    C    0.00243   0.09613   0.49099   1.000
    C353    C    0.00243   0.09614   0.99099   1.000
    C354    C    0.00242   0.59613   0.49099   1.000
    C355    C    0.00242   0.59613   0.99099   1.000
    C356    C    0.50242   0.09614   0.49099   1.000
    C357    C    0.50241   0.09613   0.99099   1.000
    C358    C    0.50241   0.59613   0.49099   1.000
    C359    C    0.50241   0.59613   0.99099   1.000
    N360    N    0.29775   0.08113   0.04960   1.000
    N361    N    0.29774   0.08113   0.54962   1.000
    N362    N    0.29774   0.58112   0.04962   1.000
    N363    N    0.29774   0.58112   0.54962   1.000
    N364    N    0.79773   0.08113   0.04960   1.000
    N365    N    0.79773   0.08113   0.54962   1.000
    N366    N    0.79773   0.58112   0.04962   1.000
    N367    N    0.79773   0.58112   0.54962   1.000
    N368    N    0.25340   0.32615   0.48897   1.000
    N369    N    0.25339   0.32615   0.98897   1.000
    N370    N    0.25339   0.82614   0.48897   1.000
    N371    N    0.25339   0.82614   0.98897   1.000
    N372    N    0.75338   0.32615   0.48897   1.000
    N373    N    0.75338   0.32615   0.98897   1.000
    N374    N    0.75338   0.82614   0.48897   1.000
    N375    N    0.75338   0.82614   0.98897   1.000
    N376    N    0.22023   0.21019   0.22244   1.000
    N377    N    0.22023   0.21019   0.72244   1.000
    N378    N    0.22023   0.71018   0.22244   1.000
    N379    N    0.22023   0.71018   0.72244   1.000
    N380    N    0.72022   0.21019   0.22244   1.000
    N381    N    0.72022   0.21019   0.72244   1.000
    N382    N    0.72022   0.71018   0.22244   1.000
    N383    N    0.72022   0.71018   0.72244   1.000
    N384    N    0.12972   0.24778   0.31133   1.000
    N385    N    0.12971   0.24778   0.81133   1.000
    N386    N    0.12971   0.74777   0.31133   1.000
    N387    N    0.12971   0.74777   0.81133   1.000
    N388    N    0.62970   0.24778   0.31133   1.000
    N389    N    0.62970   0.24778   0.81133   1.000
    N390    N    0.62970   0.74777   0.31133   1.000
    N391    N    0.62970   0.74777   0.81133   1.000
    N392    N    0.04787   0.41886   0.45039   1.000
    N393    N    0.04786   0.41886   0.95039   1.000
    N394    N    0.04786   0.91885   0.45039   1.000
    N395    N    0.04786   0.91885   0.95039   1.000
    N396    N    0.54786   0.41886   0.45039   1.000
    N397    N    0.54785   0.41886   0.95039   1.000
    N398    N    0.54785   0.91885   0.45039   1.000
    N399    N    0.54785   0.91885   0.95039   1.000
    N400    N    0.00335   0.17381   0.01100   1.000
    N401    N    0.00335   0.17381   0.51100   1.000
    N402    N    0.00335   0.67380   0.01100   1.000
    N403    N    0.00334   0.67380   0.51100   1.000
    N404    N    0.50334   0.17381   0.01100   1.000
    N405    N    0.97033   0.28968   0.77749   1.000
    N406    N    0.97033   0.78967   0.27749   1.000
    N407    N    0.97033   0.78967   0.77749   1.000
    N408    N    0.37969   0.25231   0.18876   1.000
    N409    N    0.37969   0.25231   0.68876   1.000
    N410    N    0.37968   0.75230   0.18876   1.000
    N411    N    0.37968   0.75230   0.68876   1.000
    N412    N    0.87968   0.25231   0.18876   1.000
    N413    N    0.87968   0.25231   0.68876   1.000
    N414    N    0.87967   0.75230   0.18876   1.000
    N415    N    0.87967   0.75230   0.68876   1.000
    O416    O    0.26037   0.24955   0.07013   1.000
    O417    O    0.26036   0.24955   0.57013   1.000
    O418    O    0.26036   0.74954   0.07013   1.000
    O419    O    0.26036   0.74954   0.57013   1.000
    O420    O    0.76035   0.24955   0.07013   1.000
    O421    O    0.76035   0.24955   0.57013   1.000
    O422    O    0.76035   0.74954   0.07013   1.000
    O423    O    0.76035   0.74954   0.57013   1.000
    O424    O    0.13973   0.24461   0.07750   1.000
    O425    O    0.13972   0.24461   0.57751   1.000
    O426    O    0.13972   0.74460   0.07751   1.000
    O427    O    0.13972   0.74460   0.57751   1.000
    O428    O    0.63972   0.24461   0.07750   1.000
    O429    O    0.63972   0.24461   0.57751   1.000
    O430    O    0.63971   0.74460   0.07751   1.000
    O431    O    0.63971   0.74460   0.57751   1.000
    O432    O    0.19687   0.44494   0.02260   1.000
    O433    O    0.19687   0.44494   0.52265   1.000
    O434    O    0.19687   0.94494   0.02265   1.000
    O435    O    0.19687   0.94493   0.52264   1.000
    O436    O    0.69686   0.44495   0.02260   1.000
    O437    O    0.69686   0.44494   0.52260   1.000
    O438    O    0.69686   0.94494   0.02265   1.000
    O439    O    0.69686   0.94493   0.52264   1.000
    O440    O    0.01043   0.25010   0.42956   1.000
    O441    O    0.01043   0.25009   0.92956   1.000
    O442    O    0.01043   0.75009   0.42956   1.000
    O443    O    0.01042   0.75009   0.92956   1.000
    O444    O    0.51042   0.25010   0.42956   1.000
    O445    O    0.51042   0.25009   0.92956   1.000
    O446    O    0.51041   0.75009   0.42956   1.000
    O447    O    0.51041   0.75009   0.92956   1.000
    O448    O    0.38981   0.25568   0.42291   1.000
    O449    O    0.38980   0.25568   0.92291   1.000
    O450    O    0.38980   0.75567   0.42291   1.000
    O451    O    0.38980   0.75567   0.92290   1.000
    O452    O    0.88980   0.25568   0.42291   1.000
    O453    O    0.88979   0.25568   0.92291   1.000
    O454    O    0.88979   0.75567   0.42291   1.000
    O455    O    0.88979   0.75567   0.92290   1.000
    O456    O    0.44674   0.05468   0.47680   1.000
    O457    O    0.44673   0.05468   0.97686   1.000
    O458    O    0.44673   0.55467   0.47686   1.000
    O459    O    0.44673   0.55467   0.97685   1.000
    O460    O    0.94673   0.05468   0.47680   1.000
    O461    O    0.94672   0.05468   0.97686   1.000
    O462    O    0.94672   0.55467   0.47686   1.000
    O463    O    0.94672   0.55467   0.97685   1.000
loop_
    _geom_bond_atom_site_label_1
    _geom_bond_atom_site_label_2
    _geom_bond_distance
    _geom_bond_site_symmetry_2
    _ccdc_geom_bond_type
    H75    C135      1.10436  1_554   S
    H79    C271      1.10437  1_554   S
    H76    C269      1.09581  1_554   S
    H72    C133      1.09581  1_554   S
    H106   N366      1.03211      .   S
    H104   N364      1.03180      .   S
    H98    N362      1.03211      .   S
    H96    N360      1.03181      .   S
    C280   C272      1.52709      .   S
    C280   O432      1.25344      .   S
    C280   N369      1.34973  1_554   S
    C286   C278      1.52712      .   S
    C286   O438      1.25334      .   S
    C286   N375      1.34967  1_554   S
    C282   C274      1.52713      .   S
    C282   O434      1.25333      .   S
    C282   N371      1.34969  1_554   S
    C284   C276      1.52712      .   S
    C284   O436      1.25348      .   S
    C284   N373      1.34965  1_554   S
    N209   C338      1.44908      .   S
    N209   H151      1.03470      .   S
    N209   C359      1.34976  1_554   S
    N400   C340      1.44935  1_455   S
    N400   H145      1.03468      .   S
    N400   C353      1.34975  1_554   S
    N402   C342      1.44941  1_455   S
    N402   H147      1.03470      .   S
    N402   C355      1.34976  1_554   S
    N404   C336      1.44905      .   S
    N404   H149      1.03468      .   S
    N404   C357      1.34975  1_554   S
    C338   C298      1.55563      .   S
    C338   C331      1.54282  1_554   S
    C338   H179      1.09590  1_554   S
    C342   C302      1.55563      .   S
    C342   C335      1.54282  1_554   S
    C342   H183      1.09588  1_554   S
    C340   C300      1.55492      .   S
    C340   C333      1.54300  1_554   S
    C340   H181      1.09588  1_554   S
    C336   C296      1.55491      .   S
    C336   C329      1.54300  1_554   S
    C336   H178      1.09586  1_554   S
    C278   H94       1.09848      .   S
    C278   C257      1.52978  1_565   S
    C278   H87       1.10248  1_554   S
    C276   H92       1.09847      .   S
    C276   C259      1.52949      .   S
    C276   H85       1.10247  1_554   S
    C274   H90       1.09846      .   S
    C274   C253      1.52979  1_565   S
    C274   H83       1.10230  1_554   S
    C272   H88       1.09848      .   S
    C272   C255      1.52949      .   S
    C272   H81       1.10247  1_554   S
    H108   N360      1.02868      .   S
    H110   N362      1.02877      .   S
    H112   N364      1.02870      .   S
    H114   N366      1.02877      .   S
    H191   C351      1.10203  1_554   S
    H187   C347      1.10240  1_554   S
    H189   C349      1.10259  1_554   S
    H185   C345      1.10259  1_554   S
    N360   C253      1.48682      .   S
    N360   Zn32      2.08831      .   S
    N364   C257      1.48683      .   S
    N364   Zn3       2.08831      .   S
    N362   C255      1.48641      .   S
    N362   Zn1       2.08818      .   S
    N366   C259      1.48641      .   S
    N366   Zn5       2.08819      .   S
    C261   O416      1.29175      .   S
    C261   O424      1.25019      .   S
    C261   C133      1.54296  1_554   S
    C263   O418      1.29175      .   S
    C263   O426      1.25029      .   S
    C263   C135      1.54298  1_554   S
    C265   O420      1.29175      .   S
    C265   O428      1.25018      .   S
    C265   C269      1.54296  1_554   S
    C267   O422      1.29175      .   S
    C267   O430      1.25028      .   S
    C267   C271      1.54296  1_554   S
    O422   Zn5       1.99011      .   S
    O418   Zn1       1.99013      .   S
    O420   Zn3       1.99028      .   S
    O416   Zn32      1.99028      .   S
    C255   H66       1.09681      .   S
    C255   H58       1.09825      .   S
    C259   H70       1.09681      .   S
    C259   H62       1.09825      .   S
    C253   H64       1.09683      .   S
    C253   H56       1.09826      .   S
    C257   H68       1.09683      .   S
    C257   H60       1.09745      .   S
    H143   C302      1.09898      .   S
    H139   C298      1.09898      .   S
    H137   C296      1.09862      .   S
    H141   C300      1.09861      .   S
    C300   H128      1.10093      .   S
    C300   C316      1.49140      .   S
    C296   H124      1.10093      .   S
    C296   C312      1.49139      .   S
    C302   H130      1.10130      .   S
    C302   C318      1.49024      .   S
    C298   H126      1.10130      .   S
    C298   C314      1.49024      .   S
    Zn5    N414      2.01228      .   S
    Zn5    N382      1.99258      .   S
    Zn1    N410      2.01227      .   S
    Zn1    N378      1.99257      .   S
    Zn32   N408      2.01222      .   S
    Zn32   N376      1.99243      .   S
    Zn3    N412      2.01222      .   S
    Zn3    N380      1.99244      .   S
    C318   N414      1.39171      .   S
    C318   C310      1.37609      .   S
    C316   N412      1.39172      .   S
    C316   C308      1.37609      .   S
    C314   N410      1.39172      .   S
    C314   C306      1.37609      .   S
    C312   N408      1.39172      .   S
    C312   C304      1.37609      .   S
    N412   C292      1.35267      .   S
    N414   C294      1.35265      .   S
    N410   C290      1.35266      .   S
    N408   C288      1.35211      .   S
    H21    C227      1.08327      .   S
    H17    C223      1.08325      .   S
    H15    C221      1.08309      .   S
    H19    C225      1.08310      .   S
    C310   H155      1.08414  1_655   S
    C310   N406      1.38507      .   S
    C308   H153      1.08409  1_655   S
    C308   N215      1.38507      .   S
    C306   H159      1.08380      .   S
    C306   N213      1.38505      .   S
    C304   H157      1.08373      .   S
    C304   N211      1.38507      .   S
    N380   C225      1.34809      .   S
    N380   C241      1.38509      .   S
    N382   C227      1.34809      .   S
    N382   C243      1.38509      .   S
    N378   C223      1.34809      .   S
    N378   C239      1.38510      .   S
    N376   C221      1.34809      .   S
    N376   C237      1.38510      .   S
    C223   N386      1.35258      .   S
    C221   N384      1.35257      .   S
    C225   N388      1.35257      .   S
    C227   N390      1.35258      .   S
    C288   N211      1.34816      .   S
    C288   H116      1.08269      .   S
    C292   N215      1.34814      .   S
    C292   H120      1.08222      .   S
    C290   N213      1.34814      .   S
    C290   H118      1.08317      .   S
    C294   N406      1.34813      .   S
    C294   H122      1.08317      .   S
    H54    C243      1.08375      .   S
    H50    C239      1.08374      .   S
    H52    C241      1.08381      .   S
    H48    C237      1.08380      .   S
    N211   Zn11      1.99228      .   S
    N406   Zn9       1.99252  1_655   S
    N215   Zn7       1.99252  1_655   S
    N213   Zn13      1.99228      .   S
    C239   C247      1.37618      .   S
    C241   C249      1.37617      .   S
    C243   C251      1.37619      .   S
    C237   C245      1.37617      .   S
    N384   C245      1.39190      .   S
    N384   Zn7       2.01252      .   S
    N386   C247      1.39190      .   S
    N386   Zn9       2.01252      .   S
    N388   C249      1.39189      .   S
    N388   Zn11      2.01253      .   S
    N390   C251      1.39190      .   S
    N390   Zn13      2.01253      .   S
    C251   C235      1.49039      .   S
    C249   C233      1.49040      .   S
    C247   C231      1.49039      .   S
    C245   C229      1.49039      .   S
    Zn9    O442      1.98957      .   S
    Zn9    N394      2.08834      .   S
    Zn13   O446      1.98959      .   S
    Zn13   N398      2.08833      .   S
    Zn11   O444      1.98959      .   S
    Zn11   N396      2.08834      .   S
    Zn7    O440      1.98958      .   S
    Zn7    N392      2.08834      .   S
    H167   C326      1.09825      .   S
    H161   C320      1.09825      .   S
    H165   C324      1.09825      .   S
    H163   C322      1.09826      .   S
    H25    C231      1.10127      .   S
    H29    C235      1.10125      .   S
    H27    C233      1.10127      .   S
    H23    C229      1.10127      .   S
    H169   C320      1.09685      .   S
    H171   C322      1.09685      .   S
    H173   C324      1.09685      .   S
    H175   C326      1.09685      .   S
    C229   H31       1.09890      .   S
    C229   C132      1.55563      .   S
    C231   H34       1.09896      .   S
    C231   C134      1.55563      .   S
    C233   H36       1.09890      .   S
    C233   C136      1.55564      .   S
    C235   H38       1.09897      .   S
    C235   C270      1.55563      .   S
    C326   N398      1.48646      .   S
    C326   C348      1.52983  1_565   S
    C322   N394      1.48646      .   S
    C322   C344      1.52981  1_565   S
    C324   N396      1.48646      .   S
    C324   C350      1.52958      .   S
    C320   N392      1.48646      .   S
    C320   C346      1.52958      .   S
    O450   C330      1.25029      .   S
    O454   C334      1.25029      .   S
    O452   C332      1.25029      .   S
    O448   C328      1.25029      .   S
    O440   C332      1.29210  1_455   S
    O446   C330      1.29171      .   S
    O444   C328      1.29171      .   S
    O442   C334      1.29209  1_455   S
    C330   C339      1.54287      .   S
    C334   C343      1.54287      .   S
    C328   C337      1.52617      .   S
    C332   C341      1.52617      .   S
    N392   H217      1.02903  1_455   S
    N392   H201      1.03226      .   S
    N398   H103      1.02864      .   S
    N398   H207      1.03089      .   S
    N394   H219      1.02900  1_455   S
    N394   H203      1.03211      .   S
    N396   H101      1.02868      .   S
    N396   H205      1.03226      .   S
    H82    C275      1.10235      .   S
    H80    C273      1.10235      .   S
    H86    C279      1.10236      .   S
    H84    C277      1.10235      .   S
    H199   C350      1.09922      .   S
    H193   C344      1.09846      .   S
    H197   C348      1.09848      .   S
    H195   C346      1.09846      .   S
    H46    N374      1.03466      .   S
    H44    N372      1.03468      .   S
    H42    N370      1.03466      .   S
    H40    N368      1.03468      .   S
    O460   C352      1.25336  1_655   S
    O456   C356      1.25303      .   S
    O458   C358      1.25318      .   S
    O462   C354      1.25352  1_655   S
    C346   C354      1.52715      .   S
    C346   H188      1.10240      .   S
    C350   C358      1.52715      .   S
    C350   H192      1.10240      .   S
    C344   C352      1.52713      .   S
    C344   H186      1.10240      .   S
    C348   C356      1.52713      .   S
    C348   H190      1.10241      .   S
    C136   N372      1.44909      .   S
    C136   H77       1.09585      .   S
    C136   C266      1.54301      .   S
    C270   N374      1.44909      .   S
    C270   H78       1.09588      .   S
    C270   C268      1.53175      .   S
    C132   N368      1.44909      .   S
    C132   H73       1.09585      .   S
    C132   C262      1.54301      .   S
    C134   N370      1.44910      .   S
    C134   H74       1.09589      .   S
    C134   C264      1.53174      .   S
    N374   C287      1.34968      .   S
    N368   C281      1.34962      .   S
    N370   C283      1.34968      .   S
    N372   C285      1.34960      .   S
    C354   N403      1.34969      .   S
    C352   N401      1.34971      .   S
    C358   N210      1.34967      .   S
    C356   N208      1.34969      .   S
    H182   C341      1.09794      .   S
    H184   C343      1.09588      .   S
    H177   C337      1.09794      .   S
    H180   C339      1.09588      .   S
    H107   N367      1.03212      .   S
    H105   N365      1.03211      .   S
    H99    N363      1.03212      .   S
    H97    N361      1.03210      .   S
    C287   C279      1.52709      .   S
    C287   O439      1.25333      .   S
    C283   C275      1.52709      .   S
    C283   O435      1.25333      .   S
    C285   C277      1.52712      .   S
    C285   O437      1.25347      .   S
    C281   C273      1.52712      .   S
    C281   O433      1.25334      .   S
    N210   C339      1.44909      .   S
    N210   H152      1.03470      .   S
    N208   C337      1.45448      .   S
    N208   H150      1.03468      .   S
    N403   C343      1.44941  1_455   S
    N403   H148      1.03469      .   S
    C337   C297      1.56472      .   S
    N401   C341      1.45481  1_455   S
    N401   H146      1.03467      .   S
    C341   C301      1.56472      .   S
    C339   C299      1.55563      .   S
    C343   C303      1.55563      .   S
    C273   H89       1.09846      .   S
    C273   C256      1.52953      .   S
    C277   H93       1.09846      .   S
    C277   C260      1.52954      .   S
    C275   H91       1.09848      .   S
    C275   C254      1.52974  1_565   S
    C279   H95       1.09847      .   S
    C279   C258      1.52979  1_565   S
    H111   N363      1.02877      .   S
    H115   N367      1.02877      .   S
    H113   N365      1.02877      .   S
    H109   N361      1.02879      .   S
    N367   C260      1.48653      .   S
    N367   Zn6       2.08819      .   S
    N365   C258      1.48653      .   S
    N365   Zn4       2.08823      .   S
    N363   C256      1.48653      .   S
    N363   Zn2       2.08819      .   S
    N361   C254      1.48640      .   S
    N361   Zn0       2.08823      .   S
    C264   O419      1.29588      .   S
    C264   O427      1.25633      .   S
    C268   O423      1.29586      .   S
    C268   O431      1.25635      .   S
    C266   O421      1.29174      .   S
    C266   O429      1.25029      .   S
    C262   O417      1.29174      .   S
    C262   O425      1.25031      .   S
    O419   Zn2       1.99011      .   S
    O421   Zn4       1.99030      .   S
    O417   Zn0       1.99030      .   S
    O423   Zn6       1.99011      .   S
    C254   H65       1.09681      .   S
    C254   H57       1.09826      .   S
    C256   H67       1.09681      .   S
    C256   H59       1.09826      .   S
    C258   H69       1.09681      .   S
    C258   H61       1.09810      .   S
    C260   H71       1.09683      .   S
    C260   H63       1.09744      .   S
    H138   C297      1.09936      .   S
    H140   C299      1.09897      .   S
    H142   C301      1.09899      .   S
    H144   C303      1.09897      .   S
    C297   H125      1.10130      .   S
    C297   C313      1.49023      .   S
    C303   H131      1.10130      .   S
    C303   C319      1.49023      .   S
    C301   H129      1.10130      .   S
    C301   C317      1.49023      .   S
    C299   H127      1.10130      .   S
    C299   C315      1.49023      .   S
    Zn2    N411      2.01227      .   S
    Zn2    N379      1.99257      .   S
    Zn6    N415      2.01228      .   S
    Zn6    N383      1.99257      .   S
    Zn0    N409      2.01222      .   S
    Zn0    N377      1.99244      .   S
    Zn4    N413      2.01222      .   S
    Zn4    N381      1.99244      .   S
    C319   N415      1.39171      .   S
    C319   C311      1.37609      .   S
    C317   N413      1.39172      .   S
    C317   C309      1.37610      .   S
    C315   N411      1.39172      .   S
    C315   C307      1.37609      .   S
    C313   N409      1.39172      .   S
    C313   C305      1.37610      .   S
    N415   C295      1.35265      .   S
    N413   C293      1.35267      .   S
    N411   C291      1.35266      .   S
    N409   C289      1.35267      .   S
    H16    C222      1.08451      .   S
    H20    C226      1.08453      .   S
    H18    C224      1.08327      .   S
    H22    C228      1.08325      .   S
    C307   H160      1.08380      .   S
    C307   N214      1.38507      .   S
    C305   H158      1.08375      .   S
    C305   N212      1.38505      .   S
    C309   H154      1.08409  1_655   S
    C309   N405      1.38505      .   S
    C311   H156      1.08423  1_655   S
    C311   N407      1.38505      .   S
    N383   C228      1.34809      .   S
    N383   C244      1.38510      .   S
    N381   C226      1.34809      .   S
    N381   C242      1.38509      .   S
    N379   C224      1.34809      .   S
    N379   C240      1.38509      .   S
    N377   C222      1.34809      .   S
    N377   C238      1.38509      .   S
    C226   N389      1.35257      .   S
    C222   N385      1.35257      .   S
    C224   N387      1.35258      .   S
    C228   N391      1.35259      .   S
    C293   N405      1.34814      .   S
    C293   H121      1.08317      .   S
    C291   N214      1.34813      .   S
    C291   H119      1.08317      .   S
    C289   N212      1.34814      .   S
    C289   H117      1.08317      .   S
    C295   N407      1.34814      .   S
    C295   H123      1.08317      .   S
    H53    C242      1.08372      .   S
    H49    C238      1.08372      .   S
    H51    C240      1.08376      .   S
    H55    C244      1.08374      .   S
    N212   Zn12      1.99228      .   S
    N405   Zn8       1.99252  1_655   S
    N407   Zn10      1.99253  1_655   S
    N214   Zn14      1.99228      .   S
    C238   C246      1.37617      .   S
    C240   C248      1.37617      .   S
    C242   C250      1.37617      .   S
    C244   C252      1.37619      .   S
    N391   C252      1.39190      .   S
    N391   Zn14      2.01253      .   S
    N389   C250      1.39189      .   S
    N389   Zn12      2.01253      .   S
    N387   C248      1.39190      .   S
    N387   Zn10      2.01252      .   S
    N385   C246      1.39190      .   S
    N385   Zn8       2.01253      .   S
    C246   C230      1.49039      .   S
    C252   C236      1.48846      .   S
    C250   C234      1.49040      .   S
    C248   C232      1.48847      .   S
    Zn8    O441      1.98958      .   S
    Zn8    N393      2.08834      .   S
    Zn10   O443      1.98958      .   S
    Zn10   N395      2.08834      .   S
    Zn12   O445      1.98958      .   S
    Zn12   N397      2.08834      .   S
    Zn14   O447      1.98959      .   S
    Zn14   N399      2.08833      .   S
    H168   C327      1.09824      .   S
    H166   C325      1.09825      .   S
    H164   C323      1.09824      .   S
    H162   C321      1.09826      .   S
    H26    C232      1.10141      .   S
    H30    C236      1.10142      .   S
    H28    C234      1.10127      .   S
    H24    C230      1.10127      .   S
    H172   C323      1.09685      .   S
    H176   C327      1.09685      .   S
    H174   C325      1.09685      .   S
    H170   C321      1.09683      .   S
    C232   H35       1.09950      .   S
    C232   C135      1.55665      .   S
    C236   H39       1.09950      .   S
    C236   C271      1.55664      .   S
    C230   H33       1.09897      .   S
    C230   C133      1.55564      .   S
    C234   H37       1.09896      .   S
    C234   C269      1.55564      .   S
    C321   N393      1.48645      .   S
    C321   C347      1.52958      .   S
    C323   N395      1.48649      .   S
    C323   C345      1.52981  1_565   S
    C325   N397      1.48646      .   S
    C325   C351      1.52958      .   S
    C327   N399      1.48648      .   S
    C327   C349      1.52981  1_565   S
    O455   C335      1.25039      .   S
    O451   C331      1.25039      .   S
    O453   C333      1.25029      .   S
    O449   C329      1.25028      .   S
    O441   C333      1.29210  1_455   S
    O443   C335      1.29208  1_455   S
    O445   C329      1.29171      .   S
    O447   C331      1.29170      .   S
    N399   H216      1.02864      .   S
    N399   H100      1.03089      .   S
    N393   H218      1.02861  1_455   S
    N393   H202      1.03090      .   S
    N395   H220      1.02901  1_455   S
    N395   H204      1.03224      .   S
    N397   H102      1.02826      .   S
    N397   H206      1.03090      .   S
    H200   C351      1.09846      .   S
    H196   C347      1.09846      .   S
    H198   C349      1.09838      .   S
    H194   C345      1.09838      .   S
    H47    N375      1.03467      .   S
    H45    N373      1.03469      .   S
    H43    N371      1.03466      .   S
    H41    N369      1.03466      .   S
    O463   C355      1.25348  1_655   S
    O459   C359      1.25314      .   S
    O461   C353      1.25352  1_655   S
    O457   C357      1.25317      .   S
    C345   C353      1.52713      .   S
    C347   C355      1.52715      .   S
    C349   C357      1.52713      .   S
    C351   C359      1.52714      .   S
    C271   N375      1.44910      .   S
    C269   N373      1.44909      .   S
    C135   N371      1.44909      .   S
    C133   N369      1.44908      .   S
