# CIF file generated by openbabel 2.4.90, see http://openbabel.sf.net
data_I
_chemical_name_common ''
_cell_length_a 18.665
_cell_length_b 19.524
_cell_length_c 19.476
_cell_angle_alpha 122.217
_cell_angle_beta 89.958
_cell_angle_gamma 90.118
_space_group_name_H-M_alt 'P 1'
_space_group_name_Hall 'P 1'
loop_
    _symmetry_equiv_pos_as_xyz
    x,y,z
loop_
    _atom_site_label
    _atom_site_type_symbol
    _atom_site_fract_x
    _atom_site_fract_y
    _atom_site_fract_z
    _atom_site_occupancy
    N0      N    0.24002   0.83988   0.95206   1.000
    N1      N    0.99007   0.16010   0.04782   1.000
    N2      N    0.99007   0.66010   0.54782   1.000
    N3      N    0.99007   0.66010   0.04781   1.000
    N4      N    0.74001   0.83988   0.95205   1.000
    N5      N    0.74001   0.33988   0.95217   1.000
    N6      N    0.24002   0.33988   0.95217   1.000
    N7      N    0.74001   0.33988   0.45217   1.000
    N8      N    0.24002   0.83988   0.45215   1.000
    N9      N    0.49007   0.66010   0.04781   1.000
    N10     N    0.99007   0.16010   0.54778   1.000
    N11     N    0.24002   0.33988   0.45218   1.000
    N12     N    0.49007   0.16010   0.54778   1.000
    N13     N    0.49007   0.16010   0.04781   1.000
    N14     N    0.49007   0.66010   0.54782   1.000
    N15     N    0.74001   0.83988   0.45215   1.000
    Zr16    Zr   0.53439   0.79608   0.86253   1.000
    O17     O    0.52031   0.75634   0.91723   1.000
    O18     O    0.51530   0.76128   0.77322   1.000
    O19     O    0.52499   0.90243   0.91983   1.000
    O20     O    0.59771   0.80099   0.87851   1.000
    Zr21    Zr   0.28435   0.20386   0.13740   1.000
    O22     O    0.27027   0.24358   0.08268   1.000
    O23     O    0.27494   0.09752   0.08009   1.000
    O24     O    0.34770   0.19898   0.12142   1.000
    O25     O    0.26525   0.23866   0.22672   1.000
    Zr26    Zr   0.28434   0.20386   0.63740   1.000
    O27     O    0.27494   0.09752   0.58012   1.000
    O28     O    0.27027   0.24358   0.58269   1.000
    O29     O    0.34769   0.19897   0.62141   1.000
    O30     O    0.26525   0.23866   0.72672   1.000
    Zr31    Zr   0.28434   0.70385   0.13739   1.000
    O32     O    0.26525   0.73865   0.22671   1.000
    O33     O    0.27026   0.74357   0.08265   1.000
    O34     O    0.34769   0.69897   0.12142   1.000
    O35     O    0.27494   0.59752   0.08011   1.000
    Zr36    Zr   0.03440   0.29609   0.36253   1.000
    O37     O    0.01531   0.26129   0.27322   1.000
    O38     O    0.09772   0.30100   0.37854   1.000
    O39     O    0.02500   0.40244   0.41983   1.000
    O40     O    0.02032   0.25634   0.41722   1.000
    Zr41    Zr   0.78433   0.70385   0.13739   1.000
    O42     O    0.76524   0.73865   0.22671   1.000
    O43     O    0.77025   0.74357   0.08265   1.000
    O44     O    0.84768   0.69897   0.12142   1.000
    O45     O    0.77493   0.59752   0.08011   1.000
    Zr46    Zr   0.78433   0.70385   0.63739   1.000
    O47     O    0.77025   0.74357   0.58267   1.000
    O48     O    0.77492   0.59752   0.58011   1.000
    O49     O    0.84768   0.69897   0.62142   1.000
    O50     O    0.76523   0.73865   0.72669   1.000
    Zr51    Zr   0.78433   0.20386   0.63740   1.000
    O52     O    0.77025   0.24358   0.58268   1.000
    O53     O    0.77493   0.09752   0.58012   1.000
    O54     O    0.76524   0.23866   0.72672   1.000
    O55     O    0.84768   0.19897   0.62142   1.000
    Zr56    Zr   0.53439   0.79608   0.36253   1.000
    O57     O    0.59771   0.80099   0.37854   1.000
    O58     O    0.52499   0.90243   0.41982   1.000
    O59     O    0.51530   0.76128   0.27322   1.000
    O60     O    0.52031   0.75634   0.41723   1.000
    Zr61    Zr   0.03440   0.29609   0.86253   1.000
    O62     O    0.02032   0.25634   0.91723   1.000
    O63     O    0.02500   0.40244   0.91983   1.000
    O64     O    0.01531   0.26129   0.77321   1.000
    O65     O    0.09772   0.30100   0.87854   1.000
    Zr66    Zr   0.03440   0.79608   0.86253   1.000
    O67     O    0.02500   0.90243   0.91983   1.000
    O68     O    0.09772   0.80099   0.87851   1.000
    O69     O    0.02032   0.75634   0.91723   1.000
    O70     O    0.01531   0.76128   0.77322   1.000
    Zr71    Zr   0.78434   0.20386   0.13740   1.000
    O72     O    0.76524   0.23866   0.22672   1.000
    O73     O    0.84769   0.19898   0.12142   1.000
    O74     O    0.77026   0.24358   0.08268   1.000
    O75     O    0.77493   0.09752   0.08009   1.000
    Zr76    Zr   0.28434   0.70385   0.63739   1.000
    O77     O    0.26525   0.73865   0.72669   1.000
    O78     O    0.27026   0.74357   0.58267   1.000
    O79     O    0.27493   0.59752   0.58012   1.000
    O80     O    0.34769   0.69897   0.62142   1.000
    Zr81    Zr   0.53439   0.29609   0.86253   1.000
    O82     O    0.51530   0.26129   0.77321   1.000
    O83     O    0.52499   0.40244   0.91983   1.000
    O84     O    0.59771   0.30100   0.87854   1.000
    O85     O    0.52031   0.25634   0.91723   1.000
    Zr86    Zr   0.53439   0.29609   0.36253   1.000
    O87     O    0.52032   0.25634   0.41722   1.000
    O88     O    0.52499   0.40244   0.41983   1.000
    O89     O    0.51531   0.26129   0.27322   1.000
    O90     O    0.59771   0.30100   0.37854   1.000
    Zr91    Zr   0.03440   0.79608   0.36253   1.000
    O92     O    0.09772   0.80099   0.37854   1.000
    O93     O    0.02032   0.75634   0.41723   1.000
    O94     O    0.01531   0.76128   0.27322   1.000
    O95     O    0.02500   0.90243   0.41983   1.000
loop_
    _geom_bond_atom_site_label_1
    _geom_bond_atom_site_label_2
    _geom_bond_distance
    _geom_bond_site_symmetry_2
    _ccdc_geom_bond_type
    Zr16   O17       1.63900      .   S
    N9     O17       3.92504  1_554   S
    Zr16   O18       1.53421      .   S
    N14    O18       3.76147      .   S
    Zr16   O19       1.76580      .   S
    N13    O19       4.31126  1_544   S
    Zr16   O20       1.21289      .   S
    N4     O20       2.91900      .   S
    Zr21   O22       1.63962      .   S
    N6     O22       3.92661  1_556   S
    Zr21   O23       1.76489      .   S
    N0     O23       4.30820  1_566   S
    Zr21   O24       1.21337      .   S
    N13    O24       2.92159      .   S
    Zr21   O25       1.53458      .   S
    N11    O25       3.76239      .   S
    Zr26   O27       1.76488      .   S
    N8     O27       4.30823  1_565   S
    Zr26   O28       1.63960      .   S
    N11    O28       3.92654      .   S
    Zr26   O29       1.21342      .   S
    N12    O29       2.92180      .   S
    Zr26   O30       1.53454      .   S
    N6     O30       3.76229      .   S
    Zr31   O32       1.53453      .   S
    N8     O32       3.76218      .   S
    Zr31   O33       1.64007      .   S
    N0     O33       3.92805  1_556   S
    Zr31   O34       1.21337      .   S
    N9     O34       2.92159      .   S
    Zr31   O35       1.76482      .   S
    N6     O35       4.30808  1_556   S
    Zr36   O37       1.53423      .   S
    N1     O37       3.76148  1_655   S
    Zr36   O38       1.21300      .   S
    N11    O38       2.91956      .   S
    Zr36   O39       1.76575      .   S
    N2     O39       4.31112  1_655   S
    Zr36   O40       1.63891      .   S
    N10    O40       3.92479  1_655   S
    Zr41   O42       1.53454      .   S
    N15    O42       3.76219      .   S
    Zr41   O43       1.64008      .   S
    N4     O43       3.92807  1_556   S
    Zr41   O44       1.21342      .   S
    N3     O44       2.92171      .   S
    Zr41   O45       1.76482      .   S
    N5     O45       4.30809  1_556   S
    Zr46   O47       1.63964      .   S
    N15    O47       3.92676      .   S
    Zr46   O48       1.76482      .   S
    N7     O48       4.30807      .   S
    Zr46   O49       1.21342      .   S
    N2     O49       2.92172      .   S
    Zr46   O50       1.53410      .   S
    N4     O50       3.76090      .   S
    Zr51   O52       1.63961      .   S
    N7     O52       3.92658      .   S
    Zr51   O53       1.76488      .   S
    N15    O53       4.30823  1_565   S
    Zr51   O54       1.53454      .   S
    N5     O54       3.76230      .   S
    Zr51   O55       1.21346      .   S
    N10    O55       2.92190      .   S
    Zr56   O57       1.21299      .   S
    N15    O57       2.91947      .   S
    Zr56   O58       1.76579      .   S
    N12    O58       4.31127  1_545   S
    Zr56   O59       1.53423      .   S
    N9     O59       3.76153      .   S
    Zr56   O60       1.63902      .   S
    N14    O60       3.92512      .   S
    Zr61   O62       1.63904      .   S
    N1     O62       3.92517  1_654   S
    Zr61   O63       1.76575      .   S
    N3     O63       4.31113  1_654   S
    Zr61   O64       1.53437      .   S
    N10    O64       3.76188  1_655   S
    Zr61   O65       1.21301      .   S
    N6     O65       2.91956      .   S
    Zr66   O67       1.76581      .   S
    N1     O67       4.31129  1_644   S
    Zr66   O68       1.21290      .   S
    N0     O68       2.91901      .   S
    Zr66   O69       1.63901      .   S
    N3     O69       3.92508  1_654   S
    Zr66   O70       1.53423      .   S
    N2     O70       3.76146  1_655   S
    Zr71   O72       1.53456      .   S
    N7     O72       3.76235      .   S
    Zr71   O73       1.21341      .   S
    N1     O73       2.92170      .   S
    Zr71   O74       1.63962      .   S
    N5     O74       3.92661  1_556   S
    Zr71   O75       1.76489      .   S
    N4     O75       4.30820  1_566   S
    Zr76   O77       1.53411      .   S
    N0     O77       3.76093      .   S
    Zr76   O78       1.63964      .   S
    N8     O78       3.92677      .   S
    Zr76   O79       1.76482      .   S
    N11    O79       4.30806      .   S
    Zr76   O80       1.21338      .   S
    N14    O80       2.92160      .   S
    Zr81   O82       1.53437      .   S
    N12    O82       3.76194      .   S
    Zr81   O83       1.76575      .   S
    N9     O83       4.31110  1_554   S
    Zr81   O84       1.21301      .   S
    N5     O84       2.91957      .   S
    Zr81   O85       1.63901      .   S
    N13    O85       3.92509  1_554   S
    Zr86   O87       1.63888      .   S
    N12    O87       3.92469      .   S
    Zr86   O88       1.76574      .   S
    N14    O88       4.31109      .   S
    Zr86   O89       1.53423      .   S
    N13    O89       3.76152      .   S
    Zr86   O90       1.21300      .   S
    N7     O90       2.91955      .   S
    Zr91   O92       1.21299      .   S
    N8     O92       2.91947      .   S
    Zr91   O93       1.63903      .   S
    N2     O93       3.92515  1_655   S
    Zr91   O94       1.53426      .   S
    N3     O94       3.76154  1_655   S
    Zr91   O95       1.76580      .   S
    N10    O95       4.31130  1_645   S
